103
charge = 0 c15_08_qmmm_bw_04.00.xyz
 O         1.0435528571      1.6918635714     0.4793842857
 C         1.6652128571      2.6997435714     0.7700042857
 H         2.7569328571      2.6910835714     0.8459642857
 H         1.1521628571      3.6466535714     0.9646242857
 O         2.8041072194      2.5478362231     4.1235088208
 H         1.9898651129      3.0866139279     4.1437309678
 H         2.8407046225      2.2511849298     5.0500844221
 O         0.8813698664      2.8648265002    -2.6773808963
 H         0.2595848933      3.1215560446    -1.9610608386
 H         1.6215559621      3.4776221388    -2.5454880062
 O         4.5094344257      0.2663803683     1.0543905601
 H         4.1382365748      0.6193812297     0.2193815702
 H         4.4279421584     -0.7025028212     0.9032085784
 O         2.1166278664      5.3000915739    -2.2482989704
 H         2.9070603098      5.7646875947    -1.8943855230
 H         1.4590467566      6.0205618056    -2.2884407219
 O        -4.3556428361     -3.6592739442     2.6064698326
 H        -4.5486912760     -2.7289721591     2.3776756936
 H        -4.2155341300     -4.0537121969     1.7298097566
 O         5.2627269097      2.1178200858     3.0648222938
 H         4.8746060600      1.3681163979     2.5597735090
 H         4.4416459176      2.4265399932     3.5015806971
 O         1.3215321064      5.0059760592     4.8880894713
 H         1.2678182119      5.5653631057     4.0850068951
 H         2.2804392179      5.0638652648     5.0966791555
 O         3.7325318086     -2.3899197793     1.2098036424
 H         3.4893930829     -3.0513981199     1.8892357605
 H         3.6229620125     -2.8928340851     0.3747287546
 O        -4.0515347082     -4.3507221653     0.0771414067
 H        -3.7632043847     -5.1535786007    -0.4103240452
 H        -4.6154759449     -3.9299944492    -0.6007434283
 O         1.7127742576      6.2500553629     2.5678200668
 H         1.1918405303      6.6646160428     1.8379596252
 H         1.7952173379      7.0237866974     3.1658148189
 O         5.8678357281      4.2320838832     0.3116966515
 H         6.4063077839      3.7312769689     0.9417333517
 H         5.0259241302      4.3173577786     0.8027198758
 O        -1.4325234310      1.5018924489     3.1640552619
 H        -1.3586828075      0.5270791004     3.2324813038
 H        -0.8280767184      1.7878037431     3.8854524925
 O         0.5045572903      7.1824317029     0.1526838603
 H        -0.4201356920      7.4839013267     0.2707029329
 H         0.6399485993      7.4009086940    -0.7952870969
 O        -3.2725249357      1.8960239138    -2.6377369818
 H        -2.6277739354      2.2739287029    -1.9999943496
 H        -3.9213183205      2.6345764472    -2.6955258057
 O        -4.6638446256      1.4713652060     0.9687607491
 H        -5.0735133229      1.9827048882     0.2400642435
 H        -4.0378343310      2.1140128161     1.3347172199
 O         2.9775369514     -3.9828464394    -0.8184947927
 H         3.3929079911     -4.4688535653    -1.5631940631
 H         2.4100485042     -3.3650840209    -1.3334058225
 O         4.6155242278     -1.7166813173    -2.0146672152
 H         3.9789528501     -1.2808471588    -2.6206500959
 H         5.1628074301     -0.9450613567    -1.7332174264
 O         3.1473160706      0.7481067964    -1.3419481391
 H         3.6857348052      1.2975938239    -1.9275686627
 H         2.3756982606      0.5526528341    -1.9112023495
 O         3.3490812403     -0.5946791938     3.7071190508
 H         3.3504897300     -0.4676041380     2.7324042203
 H         4.2916111918     -0.6159398809     3.9106332066
 O         1.2710674292     -2.5596710829    -3.2099622766
 H         1.8040963988     -3.1596053720    -3.7796901199
 H         1.5617951016     -1.6854241583    -3.5546186425
 O         1.0934404396     -6.7802231428    -0.0520409103
 H         0.3973402595     -6.3214854870    -0.5400471677
 H         1.7545493437     -6.9481403661    -0.7560888161
 O        -1.6751437509     -3.2428583437    -3.5927886288
 H        -1.6493896656     -3.9324671108    -4.2914417605
 H        -0.8011147564     -2.8391953858    -3.7574799585
 O         1.2864336124      0.3436358481    -3.5910850751
 H         1.3127477836      1.3227340432    -3.4615456481
 H         0.6878385238      0.2776675573    -4.3729165938
 O        -4.3406972785     -0.9094075499     2.6275588999
 H        -4.9034533404     -0.5778062013     3.3602217553
 H        -4.3995251890     -0.1533036497     2.0087271319
 O        -1.4451519311      3.2448660488    -0.8999716430
 H        -1.8621991903      3.1992385804    -0.0182934590
 H        -1.5979065652      4.1801799100    -1.1351767736
 O        -0.5428223422     -5.7679465899    -1.9503938880
 H        -1.4498488207     -6.1393513861    -1.9431927561
 H        -0.4044744017     -5.6560978282    -2.9158038064
 O        -4.3408121197     -3.2995653483    -2.5616376644
 H        -4.3011514491     -2.3652916422    -2.3026562140
 H        -3.4432155225     -3.4287322595    -2.9334050430
 O         3.9936539743      4.7366356764     2.1875051657
 H         4.1432669375      4.6430845555     3.1571099435
 H         3.1529127290      5.2055883867     2.1609639450
 O        -6.5118028865     -0.8875429631    -0.3452435693
 H        -6.2044245810     -0.2989948450     0.3658426660
 H        -6.6242060870     -0.2881731330    -1.0857666111
 O        -1.7193680749     -1.4521937396     3.1960376181
 H        -2.6839919617     -1.3291097791     3.0985790660
 H        -1.6474261517     -1.6740276840     4.1470767144
 O        -0.9971086043     -4.1059428497     1.5721419112
 H        -1.8701114566     -4.0118109486     1.1401516397
 H        -1.0274817865     -3.3806222824     2.2329818759
 O        -2.6252368205      3.2902270195     1.6638839824
 H        -2.3965908734      4.1617790937     2.0553283682
 H        -2.1710407590      2.6844118362     2.2839378169
 O        -3.8446997894     -0.6334674163    -2.2353358007
 H        -3.3511347014      0.1849722496    -2.4513417611
 H        -4.7784148635     -0.3379436033    -2.3124372224