281
charge = 1 c15_08_qmmm_cw_06.00.xyz
 C        -0.6640971429     -1.0765964286    -0.3072257143
 N        -1.3442471429     -2.1796564286    -0.6182857143
 N        -1.3046071429      0.0625635714    -0.0760457143
 N         0.6602328571     -1.1068564286    -0.2258357143
 H        -2.3030571429      0.1209835714    -0.1566057143
 H         1.1684428571     -1.9602664286    -0.3681157143
 H         1.1624528571     -0.2618664286     0.0102042857
 H        -0.7751071429      0.8902835714     0.1617042857
 H        -2.3464871429     -2.1740964286    -0.6695957143
 H        -0.8713871429     -3.0438364286    -0.8101757143
 O         1.0435528571      1.6918635714     0.4793842857
 C         1.6652128571      2.6997435714     0.7700042857
 H         2.7569328571      2.6910835714     0.8459642857
 H         1.1521628571      3.6466535714     0.9646242857
 O         2.8041072194      2.5478362231     4.1235088208
 H         1.9898651129      3.0866139279     4.1437309678
 H         2.8407046225      2.2511849298     5.0500844221
 O         0.8813698664      2.8648265002    -2.6773808963
 H         0.2595848933      3.1215560446    -1.9610608386
 H         1.6215559621      3.4776221388    -2.5454880062
 O         6.5629859680      0.2470794604    -1.2295942636
 H         7.1336238035     -0.1932197017    -1.8948352792
 H         6.8788417690      1.1758507483    -1.2987668709
 O         4.5094344257      0.2663803683     1.0543905601
 H         4.1382365748      0.6193812297     0.2193815702
 H         4.4279421584     -0.7025028212     0.9032085784
 O         4.5483874026      5.1910266738    -4.1756292280
 H         5.2171302696      5.8887272590    -4.3451670964
 H         4.3281116860      5.3890467301    -3.2367456145
 O         2.7329071317     -4.9336492116    -3.7204375652
 H         3.7064456515     -4.9953612720    -3.8232629583
 H         2.4905408920     -5.8403711845    -3.4332624647
 O        -6.4978325310      0.0845081313    -2.9186343570
 H        -6.1613456986      0.7396186446    -3.5512893543
 H        -7.1375313652     -0.4071839635    -3.4656008239
 O         2.1166278664      5.3000915739    -2.2482989704
 H         2.9070603098      5.7646875947    -1.8943855230
 H         1.4590467566      6.0205618056    -2.2884407219
 O        -4.3556428361     -3.6592739442     2.6064698326
 H        -4.5486912760     -2.7289721591     2.3776756936
 H        -4.2155341300     -4.0537121969     1.7298097566
 O         3.1960053157     -4.5768563260     2.9002218419
 H         3.8677768516     -4.3531644916     3.5705777486
 H         2.3788709716     -4.4176134216     3.4274522444
 O        -4.7751236160     -0.6976344206     5.7525701118
 H        -5.6455641301     -0.4105866114     5.4114470335
 H        -4.2160278331      0.0313893228     5.4287944240
 O        -2.3007677003      5.9554721276    -1.5990832221
 H        -1.7476378559      6.2949882835    -2.3303765464
 H        -3.0092235770      5.4946665539    -2.0966542036
 O         5.2627269097      2.1178200858     3.0648222938
 H         4.8746060600      1.3681163979     2.5597735090
 H         4.4416459176      2.4265399932     3.5015806971
 O         4.5894537192      1.6927709879    -3.2946411237
 H         4.2294409844      2.4994702925    -3.7201621957
 H         5.4345003203      2.0045858356    -2.9041466838
 O         1.3215321064      5.0059760592     4.8880894713
 H         1.2678182119      5.5653631057     4.0850068951
 H         2.2804392179      5.0638652648     5.0966791555
 O        -5.5773259502      2.0910851400    -4.5268180805
 H        -4.6647387875      2.3970840092    -4.7368884389
 H        -5.9897524666      2.9649475268    -4.3606928866
 O         6.8233904039      2.0565225393     5.4145302828
 H         7.7140201033      1.9309392168     5.0213823115
 H         6.2932825338      2.1924374929     4.5983993342
 O        -3.5477509743      1.8047292289     5.0753150961
 H        -2.9706642834      1.6239510737     4.3098119893
 H        -4.2251710089      2.3942993310     4.6722122754
 O         0.1413861326      1.3694375804     5.2868559884
 H         0.9839539624      0.8727644384     5.3127421879
 H         0.0262754872      1.5984532096     6.2140948843
 O        -0.6801212848      3.5953135835    -5.0650311813
 H        -0.1677865312      3.0645893902    -4.4182095214
 H        -0.3503892857      3.2133119740    -5.9079419163
 O         1.8023176189     -0.9995254943     5.8778243385
 H         2.3799948139     -1.0431790329     5.0862874155
 H         2.1958110149     -1.7172347806     6.4192934070
 O        -6.2400987404      2.4744960242    -1.3679390022
 H        -7.0536458182      2.9735566414    -1.1462944009
 H        -6.5790928186      1.7655026801    -1.9598457417
 O         6.6933320932     -3.4250383199    -1.5843199317
 H         6.0149663824     -2.7293460114    -1.7452489877
 H         6.1566458672     -4.2423791279    -1.6295992063
 O        -6.4652761385     -2.8315755010    -4.7093865067
 H        -7.1131998395     -2.9116220857    -3.9977548383
 H        -5.8848622563     -3.5818400016    -4.5509477499
 O         3.7325318086     -2.3899197793     1.2098036424
 H         3.4893930829     -3.0513981199     1.8892357605
 H         3.6229620125     -2.8928340851     0.3747287546
 O        -6.5365361751     -6.3263812807    -0.6461521377
 H        -6.6737750189     -5.3976061310    -0.3672684696
 H        -6.5614430815     -6.2262890530    -1.6216497817
 O        -4.0515347082     -4.3507221653     0.0771414067
 H        -3.7632043847     -5.1535786007    -0.4103240452
 H        -4.6154759449     -3.9299944492    -0.6007434283
 O        -2.7199663703     -7.9953427466     0.7943450347
 H        -2.9987636375     -7.3212858985     0.1408418623
 H        -3.5768342106     -8.2204004914     1.2184102922
 O         1.7127742576      6.2500553629     2.5678200668
 H         1.1918405303      6.6646160428     1.8379596252
 H         1.7952173379      7.0237866974     3.1658148189
 O        -1.2790130615      4.4718743226     5.6262854291
 H        -1.5321229524      4.6861155550     4.7060512017
 H        -0.3047684178      4.4779117831     5.5418609555
 O         5.8678357281      4.2320838832     0.3116966515
 H         6.4063077839      3.7312769689     0.9417333517
 H         5.0259241302      4.3173577786     0.8027198758
 O        -2.5479826510     -6.8825555580    -4.3069038844
 H        -2.1234033058     -6.2080150764    -4.8759823860
 H        -2.8497446984     -7.5492087083    -4.9620386856
 O        -1.4325234310      1.5018924489     3.1640552619
 H        -1.3586828075      0.5270791004     3.2324813038
 H        -0.8280767184      1.7878037431     3.8854524925
 O        -1.2064312948      7.6821060386     4.4574217625
 H        -0.4838893981      7.5615813532     5.0999230234
 H        -0.8479359245      8.3406696010     3.8405194217
 O        -6.9918542455     -4.1928609814     3.6746589812
 H        -7.1593433223     -4.9756300196     3.1170909048
 H        -6.0432367702     -4.0141034079     3.5262010248
 O         0.5045572903      7.1824317029     0.1526838603
 H        -0.4201356920      7.4839013267     0.2707029329
 H         0.6399485993      7.4009086940    -0.7952870969
 O        -4.4970237975     -1.8174762955    -6.3651329104
 H        -4.3590113885     -2.6489978800    -6.8649340403
 H        -5.0807830173     -2.1139371130    -5.6328435319
 O         0.2850358773      0.2371525764    -6.2405811763
 H         0.8287668233     -0.4468669976    -6.6860835028
 H        -0.5898050031     -0.2124019416    -6.2430076395
 O        -3.2725249357      1.8960239138    -2.6377369818
 H        -2.6277739354      2.2739287029    -1.9999943496
 H        -3.9213183205      2.6345764472    -2.6955258057
 O         1.4739357288     -4.4510077707    -6.0890409895
 H         2.2188328542     -4.4878166393    -5.4481552456
 H         1.9754705622     -4.2855783380    -6.9156032869
 O        -4.6638446256      1.4713652060     0.9687607491
 H        -5.0735133229      1.9827048882     0.2400642435
 H        -4.0378343310      2.1140128161     1.3347172199
 O        -6.2075531231      0.8980131219     3.9234213737
 H        -6.0160894152      1.8306403197     3.6870053223
 H        -6.8119474032      0.6264797207     3.1925981698
 O         4.1064644602      5.2801973597     5.0850165927
 H         4.5992210035      6.1166122191     4.9239303496
 H         4.4122147509      5.0366712420     5.9863825062
 O        -2.7354234392      6.7282698208     0.9407005689
 H        -3.0008067604      7.6745183588     0.8378837419
 H        -2.6350429380      6.4675723421    -0.0061100758
 O         6.1653175895     -1.0034244858     4.1985549515
 H         6.6881924542     -0.2619257011     4.5488934283
 H         6.4578428149     -1.0420794133     3.2601843251
 O         2.9775369514     -3.9828464394    -0.8184947927
 H         3.3929079911     -4.4688535653    -1.5631940631
 H         2.4100485042     -3.3650840209    -1.3334058225
 O         4.6155242278     -1.7166813173    -2.0146672152
 H         3.9789528501     -1.2808471588    -2.6206500959
 H         5.1628074301     -0.9450613567    -1.7332174264
 O         3.1473160706      0.7481067964    -1.3419481391
 H         3.6857348052      1.2975938239    -1.9275686627
 H         2.3756982606      0.5526528341    -1.9112023495
 O         3.3490812403     -0.5946791938     3.7071190508
 H         3.3504897300     -0.4676041380     2.7324042203
 H         4.2916111918     -0.6159398809     3.9106332066
 O        -1.6360595512      5.4761688090     3.2008305594
 H        -1.9043990330      5.8824926847     2.3501050260
 H        -1.4843119567      6.2494384254     3.7799249885
 O         1.2710674292     -2.5596710829    -3.2099622766
 H         1.8040963988     -3.1596053720    -3.7796901199
 H         1.5617951016     -1.6854241583    -3.5546186425
 O        -2.6271328064     -4.4510008139     4.6868765518
 H        -3.1383287146     -4.3914281211     5.5287222024
 H        -3.3250227238     -4.2076796228     4.0429467981
 O         6.9549138876      2.7555617954    -2.0529337471
 H         7.8725621904      3.0366387282    -1.8462065301
 H         6.4332884273      3.3323113707    -1.4558356362
 O         1.0934404396     -6.7802231428    -0.0520409103
 H         0.3973402595     -6.3214854870    -0.5400471677
 H         1.7545493437     -6.9481403661    -0.7560888161
 O        -1.6751437509     -3.2428583437    -3.5927886288
 H        -1.6493896656     -3.9324671108    -4.2914417605
 H        -0.8011147564     -2.8391953858    -3.7574799585
 O        -5.0684305370      5.6452564577     2.1323219325
 H        -4.2062549617      5.7867518803     1.6860385829
 H        -5.5209150852      6.4930130936     1.9370490732
 O         1.2864336124      0.3436358481    -3.5910850751
 H         1.3127477836      1.3227340432    -3.4615456481
 H         0.6878385238      0.2776675573    -4.3729165938
 O         7.0372122729     -0.5846912023     1.5915750872
 H         7.7356307430      0.1050716987     1.5581236989
 H         6.4858536575     -0.2420108342     0.8539005764
 O         4.3885233603     -6.0029571969     1.0014410759
 H         3.7022471506     -5.5346463401     1.5351203816
 H         5.1875143902     -5.6580828648     1.4286689645
 O         1.7187832630     -7.2911932811    -3.0781539020
 H         1.1123497672     -7.6770015225    -3.7445254612
 H         1.9829894054     -8.1021701556    -2.5984409988
 O        -4.8410344572      4.6211173383    -1.9658805203
 H        -5.2353628999      3.8045293172    -1.5987945354
 H        -5.6060458479      5.0173758985    -2.3935771133
 O         7.4947946239      3.5211940381     2.6516570125
 H         6.7412489327      2.9184816492     2.8576341287
 H         7.2913137962      4.2669668124     3.2339749715
 O        -7.0929289907     -3.6126102100    -0.6418608013
 H        -7.6590955828     -3.2627581742    -1.3514989180
 H        -6.7921482619     -2.7838221208    -0.1972894540
 O         0.9136508852     -3.1297465502     4.2384652963
 H         0.8331057804     -2.1961801390     3.9235470631
 H         0.1938804023     -3.1797379049     4.8969818487
 O        -1.0889162917     -5.1090120245    -5.6553588440
 H        -1.3344505794     -4.5406519798    -6.4229108403
 H        -0.1316936236     -4.9048230241    -5.5628303304
 O        -0.5341723935     -8.8221517741    -0.7592441407
 H        -1.2389823633     -8.4149174532    -0.2117043063
 H         0.1998729240     -8.1762486065    -0.6423290750
 O         3.9147813976     -0.8388162629    -4.5244185447
 H         4.1165285786      0.0979819128    -4.3303252935
 H         3.3937832846     -0.7567786246    -5.3510722717
 O        -4.3406972785     -0.9094075499     2.6275588999
 H        -4.9034533404     -0.5778062013     3.3602217553
 H        -4.3995251890     -0.1533036497     2.0087271319
 O        -0.6852080142      6.1168324778    -3.9960307504
 H        -1.5445369985      5.9237605263    -4.4284582664
 H        -0.0934720070      5.4733595849    -4.4381067124
 O         1.5728751514      8.2017734142    -2.0889664297
 H         1.1042784094      8.9966642005    -2.4424440470
 H         2.3868868201      8.1895871912    -2.6453808487
 O        -3.6614287336     -6.6581139243    -1.7942542209
 H        -3.4423599353     -6.6355681759    -2.7535821826
 H        -4.2159946893     -7.4698610194    -1.7797048499
 O         3.2368808085      9.2688727698     0.1167012294
 H         2.8329489044      8.6954851570    -0.5640746047
 H         4.1646596607      8.9508621033     0.1394622089
 O         1.4328017193      8.4495145528     4.2676751329
 H         1.8619282789      9.0909563252     3.6646728459
 H         1.8881131148      8.6266058680     5.1100184145
 O        -1.4451519311      3.2448660488    -0.8999716430
 H        -1.8621991903      3.1992385804    -0.0182934590
 H        -1.5979065652      4.1801799100    -1.1351767736
 O        -0.5428223422     -5.7679465899    -1.9503938880
 H        -1.4498488207     -6.1393513861    -1.9431927561
 H        -0.4044744017     -5.6560978282    -2.9158038064
 O         0.4444022659     -6.3271348348     2.6165470223
 H         0.0759700197     -5.4377131094     2.5581678639
 H         0.6967334473     -6.4672477709     1.6758987824
 O        -1.8700363777     -1.4317217249    -5.7599350325
 H        -2.7925671459     -1.3196267049    -6.0559021043
 H        -1.9999797944     -1.7877521360    -4.8556881518
 O        -5.2029734662     -5.2431448905    -4.2803900554
 H        -5.1296281555     -4.8703272810    -3.3793605201
 H        -5.4451181914     -6.1800132375    -4.1257544040
 O        -4.3408121197     -3.2995653483    -2.5616376644
 H        -4.3011514491     -2.3652916422    -2.3026562140
 H        -3.4432155225     -3.4287322595    -2.9334050430
 O         3.9936539743      4.7366356764     2.1875051657
 H         4.1432669375      4.6430845555     3.1571099435
 H         3.1529127290      5.2055883867     2.1609639450
 O        -6.5118028865     -0.8875429631    -0.3452435693
 H        -6.2044245810     -0.2989948450     0.3658426660
 H        -6.6242060870     -0.2881731330    -1.0857666111
 O        -1.7193680749     -1.4521937396     3.1960376181
 H        -2.6839919617     -1.3291097791     3.0985790660
 H        -1.6474261517     -1.6740276840     4.1470767144
 O         2.9954971986      2.2439629849     6.7636447745
 H         3.3583477655      3.0818535215     7.1256789844
 H         2.2598990439      2.0664404286     7.3932321581
 O         5.2980419660     -5.8263628931    -1.8025892443
 H         4.8861672313     -6.0207163438    -0.9370096006
 H         5.3765164974     -6.7331487384    -2.1720502648
 O        -0.9971086043     -4.1059428497     1.5721419112
 H        -1.8701114566     -4.0118109486     1.1401516397
 H        -1.0274817865     -3.3806222824     2.2329818759
 O        -5.3241967212      3.4918103587     3.7227134718
 H        -4.9877042528      4.3027802828     3.2859959211
 H        -6.1954464352      3.7794698869     4.0724515597
 O        -2.6252368205      3.2902270195     1.6638839824
 H        -2.3965908734      4.1617790937     2.0553283682
 H        -2.1710407590      2.6844118362     2.2839378169
 O        -3.8446997894     -0.6334674163    -2.2353358007
 H        -3.3511347014      0.1849722496    -2.4513417611
 H        -4.7784148635     -0.3379436033    -2.3124372224
 O         4.7616962729      6.0132950943    -1.3973203500
 H         5.0365329087      6.8804869943    -1.0255663407
 H         5.3251736150      5.4312961926    -0.8428409928