522
charge = 0 c15_08_qmmm_w_08.00.xyz
 O        -5.8772798459     -7.2372495996     4.5991029542
 H        -4.9706062226     -6.9748608095     4.8759202210
 H        -5.6732490162     -7.6329803148     3.7254200712
 O         2.8041072194      2.5478362231     4.1235088208
 H         1.9898651129      3.0866139279     4.1437309678
 H         2.8407046225      2.2511849298     5.0500844221
 O         9.6013073109      1.2136407825    -1.4647278507
 H         9.4038794959      1.5326871026    -2.3753721134
 H        10.4707801358      0.7933419515    -1.5799627840
 O         0.8813698664      2.8648265002    -2.6773808963
 H         0.2595848933      3.1215560446    -1.9610608386
 H         1.6215559621      3.4776221388    -2.5454880062
 O         6.5629859680      0.2470794604    -1.2295942636
 H         7.1336238035     -0.1932197017    -1.8948352792
 H         6.8788417690      1.1758507483    -1.2987668709
 O         3.9357205372      4.3491999860     8.0701564803
 H         4.5084164094      4.4132446376     8.8679501335
 H         3.0536829195      4.5359029973     8.4572131987
 O         4.5094344257      0.2663803683     1.0543905601
 H         4.1382365748      0.6193812297     0.2193815702
 H         4.4279421584     -0.7025028212     0.9032085784
 O         4.5483874026      5.1910266738    -4.1756292280
 H         5.2171302696      5.8887272590    -4.3451670964
 H         4.3281116860      5.3890467301    -3.2367456145
 O         3.2193474564     -3.0466957269     6.9233788631
 H         2.5974164113     -3.7655715458     7.1729357906
 H         3.5309289777     -2.7542180204     7.7874995583
 O         2.7329071317     -4.9336492116    -3.7204375652
 H         3.7064456515     -4.9953612720    -3.8232629583
 H         2.4905408920     -5.8403711845    -3.4332624647
 O        -0.8346676649     -8.8310315847     2.5926187759
 H        -0.7367472004     -7.9468288523     3.0168718994
 H        -1.5295943121     -8.5895170390     1.9528315770
 O         9.2181341447      0.8351382331     1.3702039677
 H         9.2626974414      0.9431519066     0.3982928981
 H        10.0402021794      0.3775902447     1.5622468108
 O        -6.4978325310      0.0845081313    -2.9186343570
 H        -6.1613456986      0.7396186446    -3.5512893543
 H        -7.1375313652     -0.4071839635    -3.4656008239
 O        -0.9256693511     -1.4550217134     6.0166421799
 H         0.0179538848     -1.2266970460     5.8928508704
 H        -1.0687128237     -1.0993794826     6.9159016997
 O        -9.6682942956     -2.2890148789     0.2616708639
 H        -8.9523122732     -2.8836675337    -0.0262733857
 H        -9.9020548910     -1.8391697043    -0.5829561101
 O         2.1166278664      5.3000915739    -2.2482989704
 H         2.9070603098      5.7646875947    -1.8943855230
 H         1.4590467566      6.0205618056    -2.2884407219
 O        -4.3556428361     -3.6592739442     2.6064698326
 H        -4.5486912760     -2.7289721591     2.3776756936
 H        -4.2155341300     -4.0537121969     1.7298097566
 O         2.7571605821     -6.1189925137     5.6867025709
 H         2.0087084254     -5.6904757492     6.1678273608
 H         3.4328813230     -6.0956693746     6.3971969869
 O         1.7487283635     -9.8877023321     2.0879425753
 H         0.8280832576     -9.5911891505     2.1995945562
 H         2.2405010881     -9.1199325514     2.4773478088
 O         3.1960053157     -4.5768563260     2.9002218419
 H         3.8677768516     -4.3531644916     3.5705777486
 H         2.3788709716     -4.4176134216     3.4274522444
 O        -4.7751236160     -0.6976344206     5.7525701118
 H        -5.6455641301     -0.4105866114     5.4114470335
 H        -4.2160278331      0.0313893228     5.4287944240
 O        -2.3007677003      5.9554721276    -1.5990832221
 H        -1.7476378559      6.2949882835    -2.3303765464
 H        -3.0092235770      5.4946665539    -2.0966542036
 O         2.6818210065     -1.4607844157    -6.9151300365
 H         2.9209008348     -1.3411136298    -7.8547681442
 H         2.7095562694     -2.4418112800    -6.8598519386
 O         5.2627269097      2.1178200858     3.0648222938
 H         4.8746060600      1.3681163979     2.5597735090
 H         4.4416459176      2.4265399932     3.5015806971
 O         4.5894537192      1.6927709879    -3.2946411237
 H         4.2294409844      2.4994702925    -3.7201621957
 H         5.4345003203      2.0045858356    -2.9041466838
 O         5.2178305975     11.2163644849     0.9593963634
 H         6.0301866072     11.7385933792     0.7644736759
 H         5.4371948792     10.3673386627     0.5530504073
 O         1.3215321064      5.0059760592     4.8880894713
 H         1.2678182119      5.5653631057     4.0850068951
 H         2.2804392179      5.0638652648     5.0966791555
 O        -2.9869457425      9.4499023358     1.4471944783
 H        -3.9009283692      9.8074105557     1.5079998165
 H        -2.4921150327     10.0581365289     2.0477712053
 O        -5.5773259502      2.0910851400    -4.5268180805
 H        -4.6647387875      2.3970840092    -4.7368884389
 H        -5.9897524666      2.9649475268    -4.3606928866
 O         6.8233904039      2.0565225393     5.4145302828
 H         7.7140201033      1.9309392168     5.0213823115
 H         6.2932825338      2.1924374929     4.5983993342
 O        -1.7433943746     -3.7427369312    -7.9659481344
 H        -2.6499817914     -3.9371768530    -8.2815144710
 H        -1.6364650064     -2.8094780449    -8.1789030484
 O         0.2234337239     -8.7983726076    -4.8900631601
 H        -0.1182719822     -8.3449121580    -5.6924256907
 H         0.6225827631     -9.5995635544    -5.2942895997
 O         5.6810569396      8.4468248616     0.1811756871
 H         6.3825024819      8.4909359408    -0.5079455238
 H         6.2346752006      8.2151568097     0.9582185572
 O        -9.2206310068      2.9050485625     2.8574787102
 H        -9.9125597156      2.8013966789     3.5492917594
 H        -9.6278124206      2.3416799910     2.1621798593
 O         9.2906080124      1.5211066267     4.1686791646
 H         8.9806479954      1.6774672467     3.2487155623
 H         9.9787339409      2.2173570851     4.2014030439
 O        -3.5477509743      1.8047292289     5.0753150961
 H        -2.9706642834      1.6239510737     4.3098119893
 H        -4.2251710089      2.3942993310     4.6722122754
 O         0.1413861326      1.3694375804     5.2868559884
 H         0.9839539624      0.8727644384     5.3127421879
 H         0.0262754872      1.5984532096     6.2140948843
 O        -0.6801212848      3.5953135835    -5.0650311813
 H        -0.1677865312      3.0645893902    -4.4182095214
 H        -0.3503892857      3.2133119740    -5.9079419163
 O         2.1364394382      2.1345471712    -5.5658653843
 H         2.8651359442      1.8654114025    -6.1628670650
 H         1.4515591466      1.4920820990    -5.8015829149
 O         1.8023176189     -0.9995254943     5.8778243385
 H         2.3799948139     -1.0431790329     5.0862874155
 H         2.1958110149     -1.7172347806     6.4192934070
 O         0.6724673926     10.6794653125     0.5145898951
 H         1.5260488949     10.2237047202     0.3547135136
 H         0.1010233846     10.2259952991    -0.1410127200
 O        -0.5449593752      6.4361221995     7.5885879776
 H        -0.7843365703      5.9354585991     6.7816001459
 H        -1.2366055891      6.1637365378     8.2187766308
 O        -6.2400987404      2.4744960242    -1.3679390022
 H        -7.0536458182      2.9735566414    -1.1462944009
 H        -6.5790928186      1.7655026801    -1.9598457417
 O         6.6933320932     -3.4250383199    -1.5843199317
 H         6.0149663824     -2.7293460114    -1.7452489877
 H         6.1566458672     -4.2423791279    -1.6295992063
 O         9.7265881072      4.6652499743    -1.5670565481
 H         9.8531034202      4.2177255794    -0.7004404867
 H        10.3729536039      4.1885761298    -2.1272742998
 O        -6.4652761385     -2.8315755010    -4.7093865067
 H        -7.1131998395     -2.9116220857    -3.9977548383
 H        -5.8848622563     -3.5818400016    -4.5509477499
 O         3.7325318086     -2.3899197793     1.2098036424
 H         3.4893930829     -3.0513981199     1.8892357605
 H         3.6229620125     -2.8928340851     0.3747287546
 O        -0.6058897966     -6.1458723262     5.1501474598
 H        -0.0283258997     -5.9076211013     4.4009204294
 H        -1.1421648804     -5.3341301552     5.2712322970
 O        -6.8344062883     -4.0475286462     6.4514421971
 H        -7.7017363406     -4.3685794573     6.7702246040
 H        -6.9230524869     -4.2003054518     5.4806935219
 O        -6.5365361751     -6.3263812807    -0.6461521377
 H        -6.6737750189     -5.3976061310    -0.3672684696
 H        -6.5614430815     -6.2262890530    -1.6216497817
 O        -4.0515347082     -4.3507221653     0.0771414067
 H        -3.7632043847     -5.1535786007    -0.4103240452
 H        -4.6154759449     -3.9299944492    -0.6007434283
 O         3.2423859145      9.9061259374     2.8128010046
 H         3.1082308392     10.8330715044     2.5386718643
 H         3.2787656437      9.4774029458     1.9298315190
 O        -2.7199663703     -7.9953427466     0.7943450347
 H        -2.9987636375     -7.3212858985     0.1408418623
 H        -3.5768342106     -8.2204004914     1.2184102922
 O         1.7127742576      6.2500553629     2.5678200668
 H         1.1918405303      6.6646160428     1.8379596252
 H         1.7952173379      7.0237866974     3.1658148189
 O        -1.2790130615      4.4718743226     5.6262854291
 H        -1.5321229524      4.6861155550     4.7060512017
 H        -0.3047684178      4.4779117831     5.5418609555
 O         5.8678357281      4.2320838832     0.3116966515
 H         6.4063077839      3.7312769689     0.9417333517
 H         5.0259241302      4.3173577786     0.8027198758
 O        -2.5479826510     -6.8825555580    -4.3069038844
 H        -2.1234033058     -6.2080150764    -4.8759823860
 H        -2.8497446984     -7.5492087083    -4.9620386856
 O        -1.4325234310      1.5018924489     3.1640552619
 H        -1.3586828075      0.5270791004     3.2324813038
 H        -0.8280767184      1.7878037431     3.8854524925
 O         2.4165641330     -7.7948020647     3.5741177867
 H         2.7080667468     -7.2088351219     4.3041674491
 H         1.8183076907     -7.2123204167     3.0937981634
 O        -1.2064312948      7.6821060386     4.4574217625
 H        -0.4838893981      7.5615813532     5.0999230234
 H        -0.8479359245      8.3406696010     3.8405194217
 O         8.7628246110     -2.6203804313     2.8490420805
 H         8.8973204023     -3.2684136472     2.1257066511
 H         8.0141561570     -2.1159460044     2.4803600590
 O        -7.7575934006     -6.1009277812    -3.1932441010
 H        -7.9746539326     -7.0588575885    -3.2514647516
 H        -8.6408214995     -5.7162437120    -3.2403405842
 O         2.5020961909     -9.7703420725    -2.1695609313
 H         2.4255800125    -10.7011627090    -1.9103317951
 H         2.8909853005     -9.3599593494    -1.3785081240
 O        -6.9918542455     -4.1928609814     3.6746589812
 H        -7.1593433223     -4.9756300196     3.1170909048
 H        -6.0432367702     -4.0141034079     3.5262010248
 O         6.4144292472     -2.2172228772    -4.7651877178
 H         5.5004121687     -1.9462532664    -4.5361234774
 H         6.9265645011     -1.6654500881    -4.1544781645
 O         5.6177975429      7.7025052574     4.6737005037
 H         5.6861021898      8.6084863591     4.3090441006
 H         5.5258193370      7.8936962461     5.6153893016
 O         0.5045572903      7.1824317029     0.1526838603
 H        -0.4201356920      7.4839013267     0.2707029329
 H         0.6399485993      7.4009086940    -0.7952870969
 O        -4.4970237975     -1.8174762955    -6.3651329104
 H        -4.3590113885     -2.6489978800    -6.8649340403
 H        -5.0807830173     -2.1139371130    -5.6328435319
 O         3.8273977439      8.8861542557    -3.4236085555
 H         4.1631434710      9.7961144804    -3.2635668366
 H         4.6623676596      8.3855102706    -3.5387173222
 O        10.0181415929      3.8850278583     1.1223156108
 H         9.1378175673      3.9177875925     1.5437866103
 H        10.4511458670      3.1408909842     1.5965668771
 O         0.2850358773      0.2371525764    -6.2405811763
 H         0.8287668233     -0.4468669976    -6.6860835028
 H        -0.5898050031     -0.2124019416    -6.2430076395
 O        -3.2725249357      1.8960239138    -2.6377369818
 H        -2.6277739354      2.2739287029    -1.9999943496
 H        -3.9213183205      2.6345764472    -2.6955258057
 O        -4.4360024955      2.6761966752    -8.0752778098
 H        -5.1553562837      3.1374750965    -8.5465578079
 H        -4.7393966825      2.7394622513    -7.1515987602
 O         1.4739357288     -4.4510077707    -6.0890409895
 H         2.2188328542     -4.4878166393    -5.4481552456
 H         1.9754705622     -4.2855783380    -6.9156032869
 O        -5.1276529139      5.0222330714     6.0446786512
 H        -4.2816301559      5.2950730459     5.6281844954
 H        -5.7223935872      5.7415540234     5.7435812835
 O        -4.6638446256      1.4713652060     0.9687607491
 H        -5.0735133229      1.9827048882     0.2400642435
 H        -4.0378343310      2.1140128161     1.3347172199
 O        -3.9938174690     -1.0928791985     8.3435353440
 H        -4.0525416300     -0.8697367207     7.3976911142
 H        -4.9219211939     -1.3267218555     8.5360251115
 O        -6.2075531231      0.8980131219     3.9234213737
 H        -6.0160894152      1.8306403197     3.6870053223
 H        -6.8119474032      0.6264797207     3.1925981698
 O        -4.1561631579     -3.6115059103     6.7858247474
 H        -5.1267080175     -3.7682177627     6.7715033845
 H        -4.0896883546     -2.6830325440     6.4780494845
 O         4.1064644602      5.2801973597     5.0850165927
 H         4.5992210035      6.1166122191     4.9239303496
 H         4.4122147509      5.0366712420     5.9863825062
 O        -2.7354234392      6.7282698208     0.9407005689
 H        -3.0008067604      7.6745183588     0.8378837419
 H        -2.6350429380      6.4675723421    -0.0061100758
 O        -5.4206678473     -8.0058562784     1.2970809504
 H        -6.2727492270     -8.4508499314     1.4228772689
 H        -5.6909526597     -7.2206804742     0.7783693116
 O         6.1653175895     -1.0034244858     4.1985549515
 H         6.6881924542     -0.2619257011     4.5488934283
 H         6.4578428149     -1.0420794133     3.2601843251
 O         2.9775369514     -3.9828464394    -0.8184947927
 H         3.3929079911     -4.4688535653    -1.5631940631
 H         2.4100485042     -3.3650840209    -1.3334058225
 O         4.6155242278     -1.7166813173    -2.0146672152
 H         3.9789528501     -1.2808471588    -2.6206500959
 H         5.1628074301     -0.9450613567    -1.7332174264
 O         6.3476430455     -5.5429909099     2.7937550074
 H         5.9390749903     -4.7836958964     3.2648813058
 H         7.0677373437     -5.7622619910     3.4221023726
 O         3.1473160706      0.7481067964    -1.3419481391
 H         3.6857348052      1.2975938239    -1.9275686627
 H         2.3756982606      0.5526528341    -1.9112023495
 O         3.3490812403     -0.5946791938     3.7071190508
 H         3.3504897300     -0.4676041380     2.7324042203
 H         4.2916111918     -0.6159398809     3.9106332066
 O        -1.6360595512      5.4761688090     3.2008305594
 H        -1.9043990330      5.8824926847     2.3501050260
 H        -1.4843119567      6.2494384254     3.7799249885
 O         1.2710674292     -2.5596710829    -3.2099622766
 H         1.8040963988     -3.1596053720    -3.7796901199
 H         1.5617951016     -1.6854241583    -3.5546186425
 O         9.1264413774      6.9716036359     0.0174989504
 H         9.3281151005      6.2676641355    -0.6407611772
 H         8.4713259774      7.4961783335    -0.4538765253
 O        -3.4134293785      6.1503831649    -4.5892010280
 H        -3.3200821215      6.6332476419    -5.4391384324
 H        -4.0244337078      6.7616945860    -4.1193215271
 O         8.1833784970     -4.0745782285     0.5832873868
 H         7.8546192712     -4.9917859175     0.5259798080
 H         7.5854306809     -3.6115238527    -0.0347004307
 O         2.1232499384      4.8784063721    -5.6790210786
 H         2.8931494242      5.0989569404    -5.1155501432
 H         2.0652949509      3.9185883708    -5.5277031469
 O        -2.6271328064     -4.4510008139     4.6868765518
 H        -3.1383287146     -4.3914281211     5.5287222024
 H        -3.3250227238     -4.2076796228     4.0429467981
 O         6.9549138876      2.7555617954    -2.0529337471
 H         7.8725621904      3.0366387282    -1.8462065301
 H         6.4332884273      3.3323113707    -1.4558356362
 O         1.0934404396     -6.7802231428    -0.0520409103
 H         0.3973402595     -6.3214854870    -0.5400471677
 H         1.7545493437     -6.9481403661    -0.7560888161
 O        -6.7695301597      4.5689020070    -4.1516241225
 H        -6.9004357316      5.4803071887    -4.4834316731
 H        -7.6777660584      4.3591657927    -3.8468448277
 O         8.1024409996     -0.4851763792    -3.2723032188
 H         8.9476699711     -0.8496872639    -2.9195110645
 H         8.4420541381      0.2372633355    -3.8359791694
 O        -5.6867384327     -8.2163465791    -4.7041396722
 H        -5.8552027954     -8.8247812749    -5.4511232033
 H        -5.3734045400     -8.8279382217    -4.0146814572
 O        -2.3693653482      2.5871506550     7.4048947056
 H        -2.0737810115      3.4160856672     6.9884699077
 H        -2.6348504262      2.0572252079     6.6266601551
 O        -1.6751437509     -3.2428583437    -3.5927886288
 H        -1.6493896656     -3.9324671108    -4.2914417605
 H        -0.8011147564     -2.8391953858    -3.7574799585
 O        -8.0659520861     -6.4342468451     2.3232746770
 H        -8.0638315672     -7.3611356206     2.0074948326
 H        -9.0311604006     -6.3228922595     2.4698433585
 O        -5.0684305370      5.6452564577     2.1323219325
 H        -4.2062549617      5.7867518803     1.6860385829
 H        -5.5209150852      6.4930130936     1.9370490732
 O         1.2864336124      0.3436358481    -3.5910850751
 H         1.3127477836      1.3227340432    -3.4615456481
 H         0.6878385238      0.2776675573    -4.3729165938
 O         7.0372122729     -0.5846912023     1.5915750872
 H         7.7356307430      0.1050716987     1.5581236989
 H         6.4858536575     -0.2420108342     0.8539005764
 O        -1.3334456761      9.4971469095    -1.1163420055
 H        -2.0678702826      9.4965020463    -0.4627776115
 H        -1.8323541193      9.6085569938    -1.9540506395
 O         4.3885233603     -6.0029571969     1.0014410759
 H         3.7022471506     -5.5346463401     1.5351203816
 H         5.1875143902     -5.6580828648     1.4286689645
 O         1.7187832630     -7.2911932811    -3.0781539020
 H         1.1123497672     -7.6770015225    -3.7445254612
 H         1.9829894054     -8.1021701556    -2.5984409988
 O         7.4710351457      5.6554044578     4.4326716220
 H         8.0007437463      6.2920598232     3.9029664890
 H         6.7246512641      6.2461318612     4.7047186112
 O        -4.8410344572      4.6211173383    -1.9658805203
 H        -5.2353628999      3.8045293172    -1.5987945354
 H        -5.6060458479      5.0173758985    -2.3935771133
 O         7.6237944044      8.4749878922    -1.6942815745
 H         7.8622253952      9.3973069409    -1.9134306064
 H         7.7439701490      8.0328460791    -2.5580906031
 O        -3.5373936471      3.6161409998    -5.2327654946
 H        -2.5719981150      3.6700352866    -5.3681854193
 H        -3.7341858660      4.5351386262    -4.9284252747
 O         7.4947946239      3.5211940381     2.6516570125
 H         6.7412489327      2.9184816492     2.8576341287
 H         7.2913137962      4.2669668124     3.2339749715
 O        -3.8756943200      8.2899375175     5.3641043431
 H        -2.9054476777      8.4260689203     5.3109877921
 H        -4.0343603495      8.5841089350     6.2901548884
 O         5.3040491611     -3.5026445222     4.5542995786
 H         5.6157096324     -2.5761514471     4.5374407277
 H         4.7755384459     -3.4671708633     5.3775018624
 O         7.8029607991      4.1982226266     6.8802215954
 H         7.1544415258      3.5112841881     6.6045621628
 H         7.8085555724      4.7810767505     6.1095917969
 O        -9.1323513452      0.9515914140    -0.5883724708
 H        -8.4678123620      0.7722701836     0.1103120636
 H        -9.9557486538      0.9892953001    -0.0546966698
 O        -7.0929289907     -3.6126102100    -0.6418608013
 H        -7.6590955828     -3.2627581742    -1.3514989180
 H        -6.7921482619     -2.7838221208    -0.1972894540
 O        -8.3867224321      5.9376293053    -0.8816557683
 H        -8.0367424479      5.3026107297    -0.2316062020
 H        -9.0536235344      6.4145314340    -0.3407228699
 O         0.9136508852     -3.1297465502     4.2384652963
 H         0.8331057804     -2.1961801390     3.9235470631
 H         0.1938804023     -3.1797379049     4.8969818487
 O        -1.0889162917     -5.1090120245    -5.6553588440
 H        -1.3344505794     -4.5406519798    -6.4229108403
 H        -0.1316936236     -4.9048230241    -5.5628303304
 O        -8.3806678140     -0.5910649423    -4.6706800365
 H        -8.1149860322     -1.4803410337    -4.9880990081
 H        -8.3974663391     -0.0479516156    -5.4871372305
 O        -7.2705334610      4.1399226291     1.0448779265
 H        -7.9437233326      3.8016656483     1.6609841450
 H        -6.5020271081      4.2379000819     1.6119077988
 O        -0.5341723935     -8.8221517741    -0.7592441407
 H        -1.2389823633     -8.4149174532    -0.2117043063
 H         0.1998729240     -8.1762486065    -0.6423290750
 O         3.9147813976     -0.8388162629    -4.5244185447
 H         4.1165285786      0.0979819128    -4.3303252935
 H         3.3937832846     -0.7567786246    -5.3510722717
 O        -4.3406972785     -0.9094075499     2.6275588999
 H        -4.9034533404     -0.5778062013     3.3602217553
 H        -4.3995251890     -0.1533036497     2.0087271319
 O        -3.4025090656     -6.9698493251     5.8230606345
 H        -3.0800660183     -7.7250857172     5.2832696656
 H        -2.7602781329     -6.2741126179     5.5639544331
 O        -0.8396609132    -10.6253482928    -3.1377680993
 H        -0.8975638534    -10.0997495377    -2.3081625327
 H        -0.5006278724     -9.9236918890    -3.7431136624
 O         6.3269097526     -0.6717268218    -7.0645740354
 H         6.0394794903     -1.3446123599    -6.4085180565
 H         7.2662908569     -0.5983421432    -6.7898652734
 O        -6.0156370067      0.4579965208    -6.4928746842
 H        -5.7431289042      1.0103638674    -5.7182137823
 H        -5.4286180490     -0.3019799206    -6.3977758845
 O       -10.1933405815      1.5962914704    -2.7418849083
 H        -9.8169772171      2.4853404180    -2.7256746449
 H        -9.6058258508      1.1301038803    -2.1037186022
 O         1.4705496019     10.9178010014    -2.3398743548
 H         1.3377756424     11.2479693645    -3.2468404254
 H         2.3494433763     11.2531909447    -2.1037755664
 O        -0.6852080142      6.1168324778    -3.9960307504
 H        -1.5445369985      5.9237605263    -4.4284582664
 H        -0.0934720070      5.4733595849    -4.4381067124
 O         1.5728751514      8.2017734142    -2.0889664297
 H         1.1042784094      8.9966642005    -2.4424440470
 H         2.3868868201      8.1895871912    -2.6453808487
 O         6.1400961246      7.3505230106    -4.2786124229
 H         7.0477759881      7.1548246021    -3.9721818667
 H         6.2551086757      7.5179931893    -5.2166993868
 O        -3.6614287336     -6.6581139243    -1.7942542209
 H        -3.4423599353     -6.6355681759    -2.7535821826
 H        -4.2159946893     -7.4698610194    -1.7797048499
 O         3.2368808085      9.2688727698     0.1167012294
 H         2.8329489044      8.6954851570    -0.5640746047
 H         4.1646596607      8.9508621033     0.1394622089
 O         8.9905070778     -3.6349484666    -2.8341968224
 H         8.1153903077     -3.6067100334    -2.3908122669
 H         9.4541827727     -2.8705800106    -2.4259559263
 O        -8.2262585324      0.0089337765     1.9749329766
 H        -8.3608327836     -0.9202418292     1.7057614144
 H        -8.9856191728      0.1468139551     2.5790708029
 O         5.3704194526      0.3685253984     7.3078989470
 H         5.9951220165      0.9862120087     6.9029352195
 H         4.5271212503      0.6756051216     6.9114481662
 O         0.1775096590      1.7046014494     8.1823066493
 H        -0.0275671345      0.8111258297     8.5307976064
 H        -0.6645792355      2.1793194847     8.3541120255
 O         1.4328017193      8.4495145528     4.2676751329
 H         1.8619282789      9.0909563252     3.6646728459
 H         1.8881131148      8.6266058680     5.1100184145
 O         4.1502703939     10.2941865365     5.4747490825
 H         4.4739446370     11.2243328255     5.5014706520
 H         3.9743086134     10.2006841174     4.5169690609
 O         8.5998346346      6.5711684344    -3.3356551442
 H         8.8988620093      5.9430090201    -2.6607062376
 H         9.4122999971      6.6457559130    -3.8712930743
 O         9.4281530343      6.9699133181     2.7283849389
 H         9.3439125294      6.7645225986     1.7739172860
 H        10.3466073149      7.3177709283     2.7642613532
 O        -1.4451519311      3.2448660488    -0.8999716430
 H        -1.8621991903      3.1992385804    -0.0182934590
 H        -1.5979065652      4.1801799100    -1.1351767736
 O        -0.5428223422     -5.7679465899    -1.9503938880
 H        -1.4498488207     -6.1393513861    -1.9431927561
 H        -0.4044744017     -5.6560978282    -2.9158038064
 O         0.4444022659     -6.3271348348     2.6165470223
 H         0.0759700197     -5.4377131094     2.5581678639
 H         0.6967334473     -6.4672477709     1.6758987824
 O        -1.8700363777     -1.4317217249    -5.7599350325
 H        -2.7925671459     -1.3196267049    -6.0559021043
 H        -1.9999797944     -1.7877521360    -4.8556881518
 O        -5.2029734662     -5.2431448905    -4.2803900554
 H        -5.1296281555     -4.8703272810    -3.3793605201
 H        -5.4451181914     -6.1800132375    -4.1257544040
 O         5.5896122924     -5.0325188281    -4.7174463993
 H         6.0485665768     -4.2147834644    -5.0223714143
 H         6.0898780324     -5.2467498980    -3.8881987568
 O         0.4101999019      6.8102202383    -7.0993853178
 H         0.6319785716      6.3275123215    -7.9209501460
 H         0.8666235329      6.2708757146    -6.4266861628
 O        -4.7822255528     -9.1323979826    -2.2751823426
 H        -4.1146786993     -9.8051655542    -2.0835472458
 H        -5.5612564841     -9.4984219125    -1.8257209731
 O        -4.3408121197     -3.2995653483    -2.5616376644
 H        -4.3011514491     -2.3652916422    -2.3026562140
 H        -3.4432155225     -3.4287322595    -2.9334050430
 O        -9.5789766584     -5.1986158893    -0.6366340607
 H        -8.6205969324     -5.2215056307    -0.7692499088
 H        -9.7799120556     -6.1368940964    -0.4403812156
 O         3.9936539743      4.7366356764     2.1875051657
 H         4.1432669375      4.6430845555     3.1571099435
 H         3.1529127290      5.2055883867     2.1609639450
 O        -0.3350353175      8.9655773395    -4.6311098780
 H        -1.2093929736      9.1913588946    -4.2383233485
 H        -0.3056552339      7.9966412256    -4.4722042413
 O        -6.5118028865     -0.8875429631    -0.3452435693
 H        -6.2044245810     -0.2989948450     0.3658426660
 H        -6.6242060870     -0.2881731330    -1.0857666111
 O        -1.7193680749     -1.4521937396     3.1960376181
 H        -2.6839919617     -1.3291097791     3.0985790660
 H        -1.6474261517     -1.6740276840     4.1470767144
 O         2.9954971986      2.2439629849     6.7636447745
 H         3.3583477655      3.0818535215     7.1256789844
 H         2.2598990439      2.0664404286     7.3932321581
 O        -9.3005956688     -2.5301475727     4.2281746388
 H        -8.9077315160     -2.1037927877     5.0190086285
 H        -8.5971680260     -3.1722592554     3.9851815210
 O        -0.2250667838    -11.4187918452     0.0194397263
 H        -0.0833317209    -10.5101354220    -0.3095603458
 H         0.1443549775    -11.3307986595     0.9315894226
 O         5.2980419660     -5.8263628931    -1.8025892443
 H         4.8861672313     -6.0207163438    -0.9370096006
 H         5.3765164974     -6.7331487384    -2.1720502648
 O        -0.9971086043     -4.1059428497     1.5721419112
 H        -1.8701114566     -4.0118109486     1.1401516397
 H        -1.0274817865     -3.3806222824     2.2329818759
 O         3.9252047672     -8.2958125576    -0.2150256216
 H         4.0770088165     -7.4417949558     0.2497964587
 H         4.5733441081     -8.8902574007     0.2243584755
 O        -5.3241967212      3.4918103587     3.7227134718
 H        -4.9877042528      4.3027802828     3.2859959211
 H        -6.1954464352      3.7794698869     4.0724515597
 O        -8.5630066060     -2.7084800585    -2.7745969826
 H        -9.0229301768     -3.4795561010    -3.1319512681
 H        -9.2800025683     -2.0341850969    -2.7623463470
 O        -2.6252368205      3.2902270195     1.6638839824
 H        -2.3965908734      4.1617790937     2.0553283682
 H        -2.1710407590      2.6844118362     2.2839378169
 O        -3.8446997894     -0.6334674163    -2.2353358007
 H        -3.3511347014      0.1849722496    -2.4513417611
 H        -4.7784148635     -0.3379436033    -2.3124372224
 O         4.7616962729      6.0132950943    -1.3973203500
 H         5.0365329087      6.8804869943    -1.0255663407
 H         5.3251736150      5.4312961926    -0.8428409928
 O         5.9334528940      3.1371569930    -5.5757621685
 H         6.8614234962      3.3512054245    -5.3608421756
 H         5.4489140310      3.8801353837    -5.1683275356
 O        -5.3644535565     -4.9344688187    -7.0652372003
 H        -5.2514809481     -4.7257875074    -6.1185654337
 H        -4.7815841369     -5.7224796603    -7.1866371862
 O        -0.3541220808     -7.2489959874    -7.3328946845
 H         0.5707564735     -6.9630119514    -7.4340174905
 H        -0.6721238581     -6.4964209656    -6.7843040600