288
charge = 0 c15_03_qmmm_w_06.00.xyz
 O        -0.6595839321      4.5339227252     5.2795651952
 H        -1.3620006020      4.5367171554     5.9578260591
 H        -1.1145179040      4.0281759684     4.5758262000
 O         8.1500828772      3.9831454373     2.9919192358
 H         7.2914308950      4.2355377564     2.5935558907
 H         8.7310803257      4.1790097154     2.2246797420
 O        -6.3938674480     -6.7178212045     2.8585559705
 H        -6.2130243654     -5.9503351750     2.2699631374
 H        -7.3679249890     -6.7360237015     2.8120490921
 O        -7.8882887055     -3.5055430420    -1.5552908652
 H        -8.1355317001     -2.5573256135    -1.5999840748
 H        -6.9193251375     -3.4480868075    -1.5870401133
 O        -1.7018804338      5.0492224549    -0.8848618958
 H        -2.2303389665      5.7895762166    -0.5599611469
 H        -2.0168983570      4.3428210720    -0.2835890226
 O        -4.6108986418     -2.5675038327    -3.4041912668
 H        -4.2493425352     -3.0788198075    -2.6419770943
 H        -3.7729445934     -2.3596397015    -3.8723779499
 O        -4.7080702653     -3.3662148622     3.6830120498
 H        -3.9361716195     -2.9405342371     4.1303614688
 H        -5.4370755822     -2.8127408560     4.0561577991
 O        -8.6422228730     -0.4312897182    -1.7171612486
 H        -8.5522240985      0.4861947987    -2.0311534041
 H        -9.3795053122     -0.7715643042    -2.2634518060
 O        -4.5606652778      3.5356223180     4.5839478141
 H        -3.6231962663      3.5203576048     4.2923795857
 H        -4.9580279703      3.9141711785     3.7733941809
 O         1.6463443729      5.4949003172     4.5191309144
 H         0.6782389883      5.5278480761     4.6414542118
 H         1.7084958202      4.6440730433     4.0256510471
 O        -1.5561571379     -5.8185019884     4.3910441496
 H        -0.7099104468     -6.2673237943     4.2107599899
 H        -2.1531256997     -6.2387578694     3.7307158406
 O         6.7396567219      2.2500536871    -5.5552595775
 H         6.0281721766      2.2367646922    -4.8699879757
 H         6.8566682626      3.2222902730    -5.6385083595
 O         3.1883178006     -1.1468379663    -4.0273624037
 H         3.3271238474     -0.6194913218    -4.8435922363
 H         2.2835033139     -0.8637834494    -3.7928189175
 O         3.4748564989     -6.2649557059     0.1004361993
 H         2.8123628667     -5.5939348874    -0.1865632484
 H         4.2024088905     -5.6931502494     0.4337242096
 O        -2.0154001310      3.9102388022     2.9643034342
 H        -2.2646680845      3.4935872990     2.1140151334
 H        -1.5781790440      4.7199369743     2.6485362465
 O         4.2146263762      0.7827609290     6.9680864258
 H         4.1533859312      1.7568260604     7.0360735362
 H         3.7348595182      0.6139957883     6.1320686400
 O        -8.5293033760     -2.6838980937     1.7907557083
 H        -9.2940756697     -2.7530849801     1.2053822928
 H        -7.8599088652     -2.3324773728     1.1488875739
 O        -2.9655801708     -1.8422473209     5.0951299996
 H        -3.1392611701     -0.8868870495     5.1563363368
 H        -2.0190213429     -1.8958320205     5.3728032223
 O         4.6308660372      3.2980912021    -0.3045403920
 H         5.1065654653      3.9705086241     0.2338187419
 H         3.9013655456      3.8352417736    -0.6851522083
 O        -0.1796656895     -0.2548109447     6.0241933651
 H         0.0207354876      0.6847967750     5.8132221371
 H        -0.7925368662     -0.1029219413     6.7726526941
 O         7.0272049487      4.8891674195    -2.5179012128
 H         7.4164371888      5.1437879087    -1.6606139965
 H         6.1832982677      5.3767090877    -2.4742333709
 O        -3.7830784241     -4.6414454332     1.5168575476
 H        -4.5626563001     -5.0039193893     1.0550727824
 H        -4.1845200237     -4.1667672928     2.2571162027
 O         1.4839713516      5.3836865864     1.3943642448
 H         1.2482915244      4.5159852083     1.7668596177
 H         0.6507578180      5.8981209025     1.5278592885
 O        -0.6334813938      7.0486998191    -2.5772521375
 H        -0.2183441480      7.5538729002    -1.8422365776
 H        -1.0708453341      6.3476095289    -2.0452515351
 O        -0.5037582542     -4.1815943431     6.5638362608
 H        -0.9494936926     -4.6845475874     5.8478692664
 H        -0.1182352421     -4.8978385382     7.1160259598
 O         0.4137191240      8.2097923061    -0.2529882242
 H         0.0530782016      8.7468175639     0.4784614396
 H         0.3953441288      7.3343047017     0.1438053650
 O        -6.6856660507     -3.7838624562    -4.7990313414
 H        -6.1800406267     -4.1630738464    -5.5311276372
 H        -5.9826776923     -3.2871819082    -4.3170954266
 O         5.0546656371     -2.2422361265    -2.2504006646
 H         5.8907688959     -1.9181538770    -2.6642543161
 H         4.3912137157     -1.7295684793    -2.7524146062
 O        -8.0427976662      2.3445301110    -2.3816360524
 H        -7.5668851881      3.1656501272    -2.6404222570
 H        -8.5669238367      2.1782500985    -3.1904286599
 O        -3.2173993198      0.7520221609     2.7802524623
 H        -3.6246856243      0.5952641434     3.6521530842
 H        -4.0123834722      1.0037793560     2.2730885207
 O         2.6081291371      4.7790402230    -0.9097847321
 H         2.2095694032      5.2511593878    -0.1417930879
 H         1.8288242495      4.2221906815    -1.1573642994
 O         5.8569051858      2.2270035491     4.3076060685
 H         6.3330216033      3.0393970950     4.0302237613
 H         5.0153027894      2.3537961502     3.8130707049
 O        -2.5670016841      2.7021976390     0.6608507905
 H        -3.4471198518      2.3367599825     0.4476386805
 H        -2.0008607683      1.9268071881     0.4819641124
 O         6.2262032939      0.5636920581     1.7884164359
 H         6.7544860423      0.2622734665     2.5477487622
 H         6.8812931284      1.0253930670     1.2357585393
 O         6.1782838333     -2.7311843192     4.1233777916
 H         5.5107095400     -2.5945528376     4.8305746057
 H         5.6407585178     -3.0849455565     3.3932375981
 O         4.2947893233      4.8360046250     4.5632032126
 H         4.4595785493      4.1822715155     5.2747612532
 H         3.3188904109      4.8633127790     4.5319222670
 O        -4.5118567593      2.2000902294    -2.1643980157
 H        -4.9125639943      2.1020507132    -1.2894260380
 H        -4.9643579867      1.4620358858    -2.6258606372
 O        -3.7983984419     -6.4069036208    -2.5384425175
 H        -3.8702670933     -5.4946684950    -2.1867256042
 H        -2.8322393740     -6.5475400416    -2.4280891367
 O         8.0665334456      1.7816082511     0.1872360498
 H         8.6679945476      1.1383556250    -0.2226909302
 H         7.5348233659      2.0628702241    -0.5836427492
 O        -1.6057799696      1.8800023153    -2.5524963628
 H        -2.5813260131      1.9718977874    -2.4727227830
 H        -1.4041902566      1.4911886075    -1.6811557020
 O         3.2459636372      7.4392986827     1.5296772295
 H         2.7476159798      6.6004386986     1.6192066218
 H         4.0518998289      7.2332847018     2.0436818737
 O         0.2646435327     -1.5587835902    -6.1365960488
 H         0.2741934575     -0.7835139182    -5.5479566824
 H        -0.3576625333     -1.2785664184    -6.8323651070
 O         8.1546680416      0.6411437828     3.8740905321
 H         7.5187032001      1.3120274661     4.2071994867
 H         8.5841730395      0.3393194730     4.7000409649
 O        -0.7054072452      0.9558721965    -4.9034863256
 H        -0.8520612703      1.2276643114    -3.9859060840
 H        -0.9450133821      1.7615168560    -5.4004520796
 O        -2.6546947821     -1.2849999328    -4.8433960130
 H        -2.7849719905     -1.0751030642    -5.7953921871
 H        -2.1359892548     -0.5305796309    -4.5553344117
 O        -5.1381742283      2.1145603314     0.7288516105
 H        -5.0789606762      2.9872779234     1.1808499540
 H        -5.7689723194      1.6469661946     1.2950115725
 O        -5.1959001479     -5.7240469829     5.1690974275
 H        -5.0807129744     -4.8934829845     4.6886989916
 H        -5.4953075658     -6.3067053170     4.4470088585
 O        -0.7608379659     -5.8276056738    -3.6164280275
 H        -0.0195271335     -6.1258851389    -3.0405201335
 H        -0.5949810532     -4.8834098693    -3.6636113658
 O         6.9800116331     -3.8897290667     0.0419410796
 H         6.3801319543     -3.1087146322     0.0592769365
 H         7.2216474132     -3.8923674746    -0.9090637384
 O        -1.0109869095     -5.4268135672     0.9555793932
 H        -1.8618174508     -5.1607112013     1.3611315224
 H        -0.7676617080     -4.6310825329     0.4673682977
 O         5.1601552815     -1.7707522322     0.6003052932
 H         4.7896338591     -1.7285994337    -0.3010775950
 H         5.3935896276     -0.8331065075     0.7600537800
 O         4.2937292109     -3.6599948938     2.5044501381
 H         4.9452822106     -4.2872849326     2.1293028895
 H         4.2974042519     -2.9624230784     1.8170159036
 O         0.9096955072      2.1942861598     6.2040752211
 H         0.7889280943      3.1421665503     6.0921852233
 H         1.4518251756      2.1556337699     7.0145037031
 O        -8.3512308545      1.9214704470     3.4563971439
 H        -8.3049150309      1.9527193903     4.4371996673
 H        -7.5291285318      1.4255068757     3.2730016946
 O         7.0219993427     -0.4211347137    -2.9540986681
 H         7.0520504491      0.4732368535    -2.5409857622
 H         7.3815883075     -0.2308570345    -3.8291679897
 O        -3.8774000702      4.4644062624    -3.4956805717
 H        -4.2772180399      3.7232502789    -2.9915680387
 H        -3.9475343567      5.1972376270    -2.8451139894
 O         4.5886371067      6.2222020909    -2.3950926288
 H         4.3132420579      6.9021470191    -3.0351270296
 H         3.7494202644      6.0877698742    -1.9082586934
 O        -0.6112496269     -2.9118240931    -4.0366543654
 H        -1.4803067627     -2.4903364793    -4.1601223741
 H        -0.1625400638     -2.5860265653    -4.8487197580
 O         1.4910572317     -2.3694738949     6.4952294992
 H         0.8486204650     -1.6684210084     6.3465853802
 H         0.9080876796     -3.1566991607     6.5399149044
 O         3.0529679888      5.1074700550    -4.9314502283
 H         2.3129218657      5.7519860441    -4.8733210804
 H         2.5891364136      4.3534789916    -5.3642403043
 O         1.1300943026     -0.7731905563     3.6162589563
 H         0.5029216865     -0.2315866313     3.1067282089
 H         0.6566055042     -0.8213227677     4.4731421052
 O        -6.9074122263     -1.8868871789     3.9733165301
 H        -7.4592565920     -2.2702669410     3.2660434359
 H        -7.5859644042     -1.6265279015     4.6302283085
 O         3.4999517795      0.2741591125    -6.3623614588
 H         3.9848345811      1.0721576207    -6.6532583982
 H         3.3297075199     -0.1630991153    -7.2228027522
 O        -0.3634486120      1.3671110748     2.3836514286
 H        -1.2018394963      1.6976060090     2.7789489015
 H        -0.7023198893      1.0496395312     1.5230359253
 O         0.3149814782      3.6519616380    -1.8521617157
 H        -0.3349861377      4.1077995725    -1.3020185426
 H        -0.1716980984      2.8512758486    -2.1398982266
 O         2.0342611525      1.7829604599    -3.2846142570
 H         1.5439391900      0.9650403166    -3.0497029628
 H         2.0078481830      2.2653652027    -2.4361055886
 O         0.2140492804     -7.2053532229     2.4764707860
 H        -0.2444309952     -6.5732194681     1.8780381273
 H         1.0443183385     -6.7223117073     2.6663424782
 O         3.6274616080     -0.2536647070     4.3585116396
 H         2.7569328533     -0.3548661842     3.9407119583
 H         4.1341112912      0.2132971799     3.6608740082
 O        -1.8515140934     -7.5640589744    -0.6247954344
 H        -1.6083621080     -7.0432235832     0.1705161837
 H        -1.1018024131     -8.1941346898    -0.7020790592
 O        -6.7693914432     -1.3642522844     0.0214480550
 H        -7.3849961171     -0.8221934168    -0.5243814710
 H        -5.9070083491     -1.3014740623    -0.4460414089
 O         4.2078261177     -2.3715977533     5.9960940962
 H         3.8995421219     -1.6427117057     5.4091699718
 H         3.4579051837     -2.4552218418     6.5977181018
 O        -0.9263331585     -3.4049043326    -1.3620056039
 H        -0.6073204996     -3.2476531040    -2.2786813340
 H        -0.5711704584     -2.6106017871    -0.9239564774
 O         1.3262410113     -2.5226077297     1.6391113624
 H         0.7347334444     -2.0401954007     1.0379541200
 H         1.5517884870     -1.8062878670     2.2659429801
 O         6.5904425276      2.1812795491    -1.9283190203
 H         5.8393510010      2.3686006884    -1.3262900869
 H         6.3431068812      2.7437764840    -2.6793950302
 O        -3.5358522476     -4.0603845467    -1.4241921606
 H        -2.5848927045     -3.7989262735    -1.4452062759
 H        -3.7696508261     -3.8311037488    -0.5224854239
 O        -5.5627227398      4.5967765512     1.8212695050
 H        -6.2763238351      5.0504351390     1.3410532622
 H        -5.0443040670      5.3568920288     2.1647335670
 O         1.4659283076      3.2144320727     3.0745897222
 H         2.3023242380      2.7345789532     2.9792495520
 H         0.8032566167      2.5001934394     2.9725814267
 O         0.8026293088     -0.6340621402    -2.7087157590
 H         0.1485620511     -1.2477194641    -3.0922159301
 H         0.6034994752     -0.6880566635    -1.7512937555
 O        -2.6937810195     -5.8911369362    -5.8275858114
 H        -2.3534331610     -5.8524569245    -4.9137258451
 H        -1.9325308807     -5.5294881706    -6.3199097944
 O        -6.1647880401      0.1650768364     2.2707725130
 H        -6.3257422464     -0.3143975158     1.4317360540
 H        -6.0158965635     -0.5847071136     2.8882715165
 O         5.6307823290      4.8078886378     2.1188557857
 H         5.8000066740      5.7660453723     1.9827674342
 H         5.2597375853      4.8035439445     3.0263535788
 O        -6.0281453556     -5.5809535918     0.4096257691
 H        -6.8466875817     -5.4843057896    -0.1318117932
 H        -5.7053130924     -6.4556772109     0.0964216053
 O         3.8953384424      2.1070269460     2.1219658131
 H         4.4110657688      1.2882338762     1.9135119724
 H         4.2318739167      2.7000399316     1.4114071174
 O         1.9809055048      2.5583750570    -5.8501376408
 H         2.2492140755      1.7081647178    -6.2120153289
 H         1.8556303587      2.3333541877    -4.9015856532
 O        -4.3827800884      0.4263918274     5.2904760837
 H        -5.0129328541     -0.0675410202     5.8552820904
 H        -4.7876187336      1.3155968286     5.3113349819
 O         4.5879741864      2.9604148719    -3.9714710445
 H         3.7552004728      2.4540100133    -3.8042399096
 H         4.2456503628      3.8734313017    -3.8879681522
 O         3.8377265542     -4.7058213074    -2.8407169080
 H         3.1758570197     -4.4850915545    -2.1499556269
 H         4.5073457292     -3.9946516837    -2.7356090356
 O         4.4664903002     -3.2219082337    -5.8234621900
 H         4.2367522398     -2.8951101020    -4.9273718248
 H         3.5845597960     -3.4579295761    -6.1516492242
 O        -1.3383279014      3.8784564606    -4.9096988834
 H        -0.4494467186      4.1025283189    -4.5670011573
 H        -1.8824922581      3.8960674560    -4.0939866165
 O        -3.5896938059     -2.6522203862     7.6546355444
 H        -3.7614999609     -2.8407807498     6.7070093895
 H        -3.8609364549     -3.5129443967     8.0443468427
 O         1.8417052173     -4.9278895141     2.7862955173
 H         2.7593820738     -4.6314196438     2.8428338426
 H         1.3974664382     -4.1249657462     2.4307439766
 O        -4.9637115928     -7.9834186037    -0.2070365740
 H        -4.1832368198     -7.6532203850    -0.6861596533
 H        -4.6200683949     -8.8433686660     0.0971788872
 O        -3.3508065582     -7.3786064120     2.9170473069
 H        -4.2440870330     -7.7574607529     3.0388752635
 H        -3.4827563799     -6.8758547752     2.1086062014
 O         1.9093697221     -4.2914898425    -0.9102579983
 H         1.0724736637     -4.7959410495    -1.0148597309
 H         1.6642040972     -3.7237215322    -0.1487509212
 O        -5.3710397542     -0.0239597554    -3.2394183494
 H        -6.1366739966      0.1080336867    -3.8375318471
 H        -5.1100688814     -0.9201606765    -3.4853974102
 O        -0.9238307194      6.2203285277     1.9988082828
 H        -1.7938578261      6.3808737223     1.5915056321
 H        -0.9783664460      6.8461168318     2.7492243605