6
charge = 0 c15_01_qmmm_b.xyz
 H         0.7659369231      1.3451861538    -0.1429138462
 O         1.6844269231      1.7228961538    -0.2010038462
 C         2.5623969231      0.6313361538    -0.1306238462
 H         3.5852969231      1.0121661538    -0.1905338462
 H         2.4648969231      0.0659861538     0.8008861538
 H         2.4190869231     -0.0835338462    -0.9464738462