6
charge = 0 c15_14_qmmm_b.xyz
 O        -1.0597193750     -0.6802068750     1.7157781250
 H        -0.8098093750     -1.1365168750     2.5244281250
 C        -2.4943793750     -0.5918268750     1.6680881250
 H        -2.7466293750     -0.0843468750     0.7432681250
 H        -2.9452193750     -1.5805768750     1.6651781250
 H        -2.8740993750     -0.0121768750     2.5050281250