571
charge = 0 c15_13_qmmm_bw_08.00.xyz
 N        -0.9433805882     -0.3825176471     1.8378094118
 H        -0.6191505882     -1.2000276471     2.3443194118
 C        -2.3259805882     -0.6219776471     1.3710294118
 H        -2.6831105882      0.2604923529     0.8478394118
 H        -2.3271205882     -1.4546176471     0.6732294118
 H        -3.0147105882     -0.8493576471     2.1813694118
 H        -0.9553205882      0.3607523529     2.5285494118
 O        -1.3373133139      4.3666222536     7.3169835111
 H        -1.8090804324      3.5236520907     7.2068143268
 H        -2.0444140728      5.0101435299     7.1184375022
 O         9.0625739751      1.5266132371    -7.2566863760
 H         8.0897548990      1.5130483500    -7.4148947120
 H         9.0387508384      1.6069551789    -6.2797611476
 O        -4.3443722222     -5.6270439208     4.0806782704
 H        -3.8555943453     -4.8008952632     3.8904387505
 H        -5.2529210258     -5.3729447049     3.8545740956
 O         9.2609016378     -0.3136905215     2.0116252662
 H         9.9188627915      0.4148288006     1.9686789477
 H         8.5770016370      0.1345071557     2.5589720191
 O         3.4488532914     -4.7452763715    -0.5165344864
 H         3.4112005288     -4.6910698887    -1.5002843093
 H         3.8362319888     -3.8907466456    -0.2991663362
 O        -1.4565251618      3.2457919461    -5.9183118765
 H        -2.2680595696      2.9481607372    -6.3780108552
 H        -0.9121257291      3.5535693176    -6.6812490037
 O        -1.4515412660      5.9279015839    -1.5185250528
 H        -1.8624200793      5.6715873384    -2.3648771417
 H        -0.7467251451      6.5394487795    -1.8091933005
 O         4.8200817849     -5.6657244729    -6.8644373696
 H         5.6784602338     -5.9818531175    -7.2382218307
 H         4.4134690597     -5.2794481404    -7.6713234803
 O        -1.2017197906     -5.0712084620     6.8549899121
 H        -0.6110110383     -4.5692723001     6.2495336908
 H        -1.1910910769     -5.9471086332     6.4083662716
 O        -4.2706656523     -4.2159538206    -5.1591697671
 H        -4.8837623773     -4.4564645271    -5.8844585136
 H        -4.3826474629     -4.9762707505    -4.5429269746
 O         0.6309318278      7.3147614929    -2.3953258150
 H         1.1797920575      7.9856172465    -1.9447288450
 H        -0.1206238372      7.8684657097    -2.6883310321
 O         1.6720480140      9.5772245536    -1.5494211942
 H         1.5494318705     10.0834582681    -2.3840961357
 H         1.8008657266     10.2912515910    -0.9077994392
 O         7.8567611324      7.0816559355     0.3909845287
 H         7.9927127448      7.4559916975    -0.5096456204
 H         7.6454840044      7.9249075406     0.8572275490
 O         7.1783200737      8.1182886486    -4.6931016729
 H         7.1945592742      7.2439266587    -5.1320770645
 H         6.3967395530      8.5241472177    -5.1318468509
 O         4.6201489695     -7.5047436215     3.7885753396
 H         5.5816518555     -7.4748647309     3.7247960821
 H         4.3560888712     -7.3101305453     2.8614196224
 O        -7.4929579732     -3.3716471761    -3.4128383916
 H        -6.9481405281     -2.9261195765    -4.0846051359
 H        -7.4949418571     -4.3011001030    -3.7537487986
 O         2.7305342395      8.3409527036    -5.3475666500
 H         2.9218686933      7.5431311051    -4.8165819938
 H         2.5324439815      7.9640068007    -6.2263024800
 O         2.7162206770      4.3419300327    -8.9465007404
 H         2.0551134475      4.2790536052    -9.6713374834
 H         3.4344256409      4.7670333691    -9.4563651274
 O        -8.6626729931     -1.3562060572     4.3181875091
 H        -9.1834223061     -0.5149099149     4.2747073494
 H        -9.1593804166     -1.8474324479     4.9944485842
 O         5.0908367510      6.7611866927    -6.8683942648
 H         4.1449361228      6.7162713655    -7.1106093430
 H         5.0457519030      6.5406785661    -5.9193764693
 O        -2.0108333888     -0.7753547569     7.9926332941
 H        -2.4581006304     -1.6271221192     8.1552404804
 H        -2.7700023634     -0.1595202680     8.0466574435
 O        -8.4065243232      3.5878938484     4.1117849351
 H        -8.6790572616      4.4903390244     3.8570078366
 H        -7.4381161510      3.6847936553     4.2356089216
 O         4.1006069122      6.1620772371     6.0121849574
 H         4.7284184138      6.8627649972     5.7422781461
 H         4.1249821195      6.3024075265     6.9827408345
 O         7.9075781232     -1.6178003782     4.9182217163
 H         7.8434141216     -2.5015166202     4.5070094923
 H         7.1438961547     -1.1787866461     4.4956161723
 O         1.0010472016     -0.7372937970     9.0024258631
 H         0.1808207055     -0.2051529914     8.9221242928
 H         1.1641143855     -0.9089152328     8.0569409726
 O         2.6853165460     -4.7174961828    -3.3824826213
 H         2.5857817134     -5.2683240734    -4.1838855686
 H         1.7793975725     -4.7516083121    -3.0182681617
 O        -4.4493050589      7.5232295688     2.6746804544
 H        -4.8860818025      8.1915153843     3.2424256929
 H        -3.7809485529      8.0785120193     2.2296273442
 O        -0.7278929457     -9.5940232795     0.1293549921
 H        -1.4479790418     -9.6409301587     0.7744644761
 H        -0.2415160104     -8.8209197369     0.4517850939
 O         0.5313182022      5.0985912172     0.2085517656
 H         0.9718829570      4.7582693297    -0.6071291482
 H        -0.3203275903      5.3910486325    -0.1426286106
 O        -2.5331233247     -2.9087331762    -2.0145628134
 H        -2.0322761940     -3.6480781418    -1.6234445723
 H        -3.4278095569     -3.2971681202    -2.0424939140
 O         2.3781630473     -3.0161085345    -8.1641996350
 H         2.3435144050     -2.4257154354    -8.9417593065
 H         3.0796534856     -2.5761718450    -7.6439911368
 O        -9.1836225407     -1.1770991122     0.9330570905
 H        -8.7763732411     -1.3780487898     0.0575481375
 H        -9.6916674979     -2.0082017068     1.0437855610
 O        -3.7932047034     -2.8615263980     8.0293092353
 H        -3.7903689452     -3.6613844648     7.4700044703
 H        -4.4081703583     -3.1587247484     8.7238295217
 O         3.8101223236     -7.0244695452     0.9960659217
 H         4.3013759439     -7.1964557616     0.1624411503
 H         3.2204959032     -6.3028575276     0.6977518363
 O        -8.3179276610      2.6053448338     1.2885081791
 H        -8.3944580231      3.2990101027     1.9769054627
 H        -8.2006070286      1.8221628059     1.8619257436
 O         4.9198057724     -1.5565426542     7.0765678466
 H         4.3073713068     -1.9574084277     7.7285876311
 H         5.0242238121     -0.6587975673     7.4615681991
 O        -6.9682324968     -2.0185140648     7.9382831292
 H        -6.5616419818     -1.7599466883     8.7964114743
 H        -7.7136609184     -2.5761091733     8.2508354318
 O         0.2936000246     -8.1426764056     7.2092176340
 H         1.1375998739     -7.7325579989     6.9180656228
 H        -0.3046539243     -7.8579746855     6.4959205708
 O         6.4978788994      3.6383547887    -5.9245756524
 H         5.5251055233      3.4931104920    -5.9535187640
 H         6.6319895085      3.6438044200    -4.9518756261
 O         1.5441395584      4.8295391380    -2.6374093840
 H         1.4644180420      5.8149132909    -2.6415032347
 H         1.2473051806      4.6330923228    -3.5327488483
 O         2.9952082431     -1.6730932906   -10.4869791333
 H         2.6286304529     -0.9896331362   -11.0862233155
 H         3.9365061623     -1.3903371747   -10.4876784712
 O         7.1389092216      1.5461574871     2.7433613634
 H         7.2509851094      2.4494118878     3.1298306730
 H         6.3873336155      1.2132187135     3.2502402879
 O         1.0175660921     -7.8318141341     1.3598488262
 H         0.4822468500     -8.0080827247     2.1514202527
 H         1.8219250334     -7.4616761848     1.7511790664
 O        -1.5587279592     -3.5335621628    -5.9245548208
 H        -1.0459914366     -3.9449857918    -6.6399937435
 H        -2.2850148362     -4.1555631577    -5.8132112167
 O         8.2071095793      5.8330476888    -6.1240970814
 H         7.6627597450      5.0216795563    -6.1549997091
 H         9.0502534804      5.5100013944    -6.5211984296
 O         2.9538015790     -3.5295993666     3.7014954042
 H         2.8256068078     -3.0607715819     2.8448635089
 H         3.9319734356     -3.6353758976     3.6926711023
 O        -6.5527990723     -3.9835264581     3.6953493486
 H        -6.2085622052     -3.3786875454     4.3758673907
 H        -6.5565127800     -3.3750664828     2.9238350296
 O        -0.4372679726     10.5060804587     0.9115027624
 H         0.2990015704     11.0460996549     1.2864599537
 H        -0.0387559284      9.6262394516     1.0651354858
 O        -4.1752254020     -8.4355958316     4.2851129475
 H        -4.4423570331     -7.4932700616     4.3475264864
 H        -5.0312057716     -8.8397229588     4.0164323045
 O        -2.6763878853      2.6871923561     3.5981346552
 H        -2.6839550451      3.6620572881     3.7363970525
 H        -3.6208434056      2.5051400854     3.4116094462
 O         1.5933879736      0.1714819095     3.7990352623
 H         0.7625369861      0.5492005847     4.1497130887
 H         2.0176690332      0.9711543996     3.4179788351
 O         5.1626411136      5.4408844780    -1.3730203217
 H         4.5283718506      4.7795147708    -1.0254744979
 H         4.6961795366      6.2655940733    -1.1206438576
 O        -8.4210416410     -4.9389054218     1.0538981984
 H        -9.1347365554     -4.3645090627     1.3927097382
 H        -7.6519994947     -4.3349578454     1.1413394798
 O        -7.2446757513      0.1917670598     2.4335093640
 H        -7.5395922895     -0.2306490237     3.2731417866
 H        -7.7530901014     -0.3872607868     1.8125003819
 O        -5.1965074277     -3.8430695987    -1.7944973864
 H        -6.0916935022     -3.5601760811    -2.0991225706
 H        -5.3811304610     -4.7778799800    -1.5315618523
 O        -2.6677769716      8.8964276117     1.3107566731
 H        -2.1321894561      9.6997709197     1.1475674569
 H        -3.1466882788      8.7765817374     0.4641183995
 O        -1.5223003656      9.0169932994    -2.8552153597
 H        -1.7276211310      9.9428543122    -2.6355054577
 H        -2.1457747179      8.5517430674    -2.2734264549
 O        -6.3821086799     -3.1874780402     1.0855144337
 H        -6.3253576665     -2.5127450543     0.3971515677
 H        -5.5239147912     -3.6560848725     0.9754514109
 O        -3.1198961311      6.3627437212     6.7028618206
 H        -3.0411363785      7.3262172927     6.6195975968
 H        -4.0088415744      6.2621003520     7.0887801279
 O         4.6374846649      6.4838338908    -3.9768630615
 H         5.0825048741      5.8936656205    -3.3379940091
 H         4.5256736752      7.2745466578    -3.4078527320
 O         7.4255324325      2.3645213573     0.0810407208
 H         7.5787983046      2.0138152163     0.9788107098
 H         8.0700146394      3.0968567706     0.0310077996
 O        -2.6454354890     -6.8080103929     1.8105465113
 H        -1.8288693738     -6.3503507316     2.0939473935
 H        -3.3063839372     -6.3326992275     2.3552977616
 O         8.4698070757     -3.8774646415    -4.0909070121
 H         8.4999733800     -3.6160570223    -3.1451440122
 H         8.1479483298     -3.0561481594    -4.5133347117
 O         0.0201920834     -4.4993730177    -2.6869590070
 H        -0.1041945691     -5.2537805701    -2.0845775213
 H        -0.5818708270     -4.7172230620    -3.4281437489
 O        -4.9521780274      2.8760006888     0.5551052048
 H        -4.5914903685      2.7041625373    -0.3491833929
 H        -4.4737902129      3.7223711424     0.7322066059
 O        -7.4168353061      1.4473290818     6.8091979044
 H        -7.2624883194      0.7708627375     6.1199211289
 H        -6.9393301068      2.2249474843     6.4453912180
 O        -4.7174983456      5.1380243616    -4.2513736664
 H        -3.7980245162      5.4490651895    -4.1532192835
 H        -4.9125899347      5.3562015084    -5.1843560553
 O        -1.7505616101     -1.6178521492     5.2712845232
 H        -2.3925220691     -0.8951769664     5.1126555710
 H        -1.7233073335     -1.6106286555     6.2431636670
 O        -1.3983783692      2.9001800742    10.7697806098
 H        -1.1024978239      2.0070735471    11.0276559129
 H        -0.8732672747      3.0548830654     9.9607486803
 O        -3.9180042329     -0.0470250211     5.0266590029
 H        -4.5346440816     -0.8004587150     5.1210089768
 H        -4.2203874224      0.3655737745     4.1996269176
 O         8.4401418221      1.4626344042    -4.4883699556
 H         8.8745750639      1.2555073884    -3.6322308211
 H         7.6106263248      1.8585789128    -4.1426283146
 O         1.7469721825     -1.1325439019     6.2472578047
 H         2.6936459634     -1.3211441266     6.4096014036
 H         1.7753330647     -0.9079445545     5.2958197050
 O        -5.7308864213      1.9531073702    -4.5396940600
 H        -5.8636025331      2.4972693377    -5.3440013296
 H        -5.0032828622      1.3808510013    -4.8251604501
 O         1.0983403789      4.1631538505     5.6290834626
 H         0.4411943343      4.3966809339     6.3144565086
 H         1.2779425086      5.0344414989     5.2545018294
 O        10.2910767423      1.6896697471    -1.0404260432
 H        11.0854732540      1.1096546186    -1.0420321230
 H         9.6133916292      1.0495034487    -1.3324395353
 O        -3.4783770766      5.4392666465     0.4642631058
 H        -2.8457766630      5.6887241391    -0.2413761754
 H        -2.9097510012      5.4608614135     1.2452222158
 O        -5.7102231128     -1.8181840639    -4.9224369921
 H        -5.1119354786     -2.5963365131    -4.9377259280
 H        -5.0693941599     -1.1041658828    -5.1333778709
 O         2.6048744219     -6.5929893399    -5.5850569317
 H         2.7841836342     -7.4865232870    -5.9503771805
 H         3.3979814605     -6.1112178073    -5.9061503864
 O         6.8988429188      4.4527374885    -3.2974436175
 H         7.7376919341      4.4866202030    -2.7907967328
 H         6.2423937210      4.4633209056    -2.5867460014
 O        -8.9788196190      3.3617108393    -3.1054949592
 H        -8.9053679303      3.6342348421    -4.0469242975
 H        -9.1553090180      2.3996346270    -3.2104101796
 O        -2.4107038310     -5.9887775553    -1.1711530382
 H        -2.8801148655     -6.7916409628    -0.8586903568
 H        -1.4844368745     -6.3117248703    -1.1921007307
 O        -1.9946706791     -1.0023940722    -7.3977108400
 H        -1.1812567147     -0.6397234310    -7.7670138412
 H        -1.7255821409     -1.9073020106    -7.1415225049
 O         4.0322030610      8.9841275398     0.9197816491
 H         3.2174289583      8.4956602922     1.1798510059
 H         4.3056790208      9.2732472971     1.8172151432
 O        -1.6328837876     -7.4035943868     5.3606722019
 H        -0.9779223485     -7.6530924479     4.6747770088
 H        -2.4622793631     -7.8090455118     5.0276042226
 O        -5.1645432815     -1.2116641416    -1.0942722198
 H        -4.3934002555     -0.9010528570    -1.6089463828
 H        -5.0088844304     -2.1803337309    -1.0749137985
 O        -2.7719388101     -0.4733180842    -3.1639719161
 H        -1.9943838223      0.0914970745    -3.1136227692
 H        -2.4335319975     -1.3229847461    -2.7941978588
 O         6.1892523697      6.0282979918     2.3983156249
 H         6.7033705899      6.3735562162     1.6371686219
 H         6.8026848409      5.3411519545     2.7511417940
 O        -5.8327779435      6.0794469227    -0.9049526660
 H        -5.0832219488      5.6675907521    -0.4300779383
 H        -6.4472420407      5.3111865190    -0.8766503340
 O         7.2602298110     -5.3397049326     1.0760744345
 H         7.3688498212     -6.2983090781     1.1921159591
 H         6.7673708495     -5.2765285784     0.2379630088
 O        -0.8692812683      1.4683201704    -3.8422871219
 H        -1.0326247704      1.8991929090    -2.9750737979
 H        -1.0921196360      2.2211601599    -4.4258689088
 O         8.2332225791     -1.2586337743    -5.0649620999
 H         8.0805277766     -0.2967501170    -4.9112592339
 H         8.9080870751     -1.4536935959    -4.3778457490
 O         4.8148145770      2.6694152792    -0.3722190130
 H         4.4899139888      3.5707438198    -0.1741318215
 H         5.7829095861      2.8121391403    -0.3070349873
 O         3.8712661386      7.8612611119    -1.5582418528
 H         4.2393834777      8.1812851347    -0.7042604372
 H         3.3393313280      8.6424620504    -1.8182424810
 O         3.7700498808      3.4268783718    -6.5080293829
 H         3.5510857595      2.4836542065    -6.6100551467
 H         3.2826437815      3.8565478256    -7.2432804796
 O         2.2994452771     -8.7488459600    -1.3829818461
 H         2.0584445469     -9.0260346058    -2.2950574273
 H         3.1528020483     -8.2963192499    -1.5652122308
 O         2.4152992379      6.5715016769    -7.4750675085
 H         1.6793369719      7.0136520668    -7.9473582255
 H         2.3606081096      5.6510192188    -7.7951451587
 O        -7.0103311831      1.0984073755    -1.0436007852
 H        -6.0991599849      0.8980455621    -0.7454596383
 H        -7.3629535843      1.4663990263    -0.2054891680
 O         4.9805665898     -3.2142375683    -3.9327058154
 H         4.2223386312     -3.7944792966    -3.6936095372
 H         5.7013529405     -3.8826952372    -3.9182194169
 O         5.5372730315     -0.8793968585    -2.4474923016
 H         5.5582039583     -0.0958043938    -3.0335292318
 H         5.1903006343     -1.5417921926    -3.0773987719
 O         5.9656188595     -5.8853495714    -4.4102634339
 H         5.5308196617     -6.7092723882    -4.1423485924
 H         5.7331088050     -5.8318281078    -5.3629299320
 O         3.7711875629     -5.3908703998    -9.4703346069
 H         4.2659853046     -4.9229643131   -10.1766555433
 H         2.9565219568     -4.8453846650    -9.4899824750
 O        -8.3294967500      4.5565892371    -0.7960898478
 H        -8.2046936944      3.7709773028    -0.2207378399
 H        -8.5698920330      4.1084023756    -1.6314219501
 O         5.5468733414     -4.0039786993     3.1226615136
 H         5.9867817803     -4.3879372187     3.9059184002
 H         5.8882644598     -4.6076940665     2.4326897036
 O        -0.4935711316      0.1706839576   -10.8923924708
 H        -0.7023060763     -0.7941048401   -10.8707539303
 H        -0.1953373939      0.3583432285    -9.9755041442
 O        -1.4018002190      6.5701171069     2.1822457874
 H        -1.8000741390      7.3627551886     1.7596299717
 H        -2.0262012313      6.4112772146     2.9211273845
 O         6.1016844182     -3.0723248577    -8.5334440358
 H         7.0015574009     -3.4534872228    -8.5423629782
 H         5.8699278524     -3.1657857136    -9.4795856885
 O        -2.5862416783     -3.5444061333     3.4723496866
 H        -1.8761515622     -4.1848696116     3.6886142816
 H        -2.3400667993     -2.8081435512     4.0461023517
 O        -4.9483982269      1.5153761691     2.8773320962
 H        -5.0439082212      1.9339238034     1.9871615339
 H        -5.7821415801      0.9985140709     2.8954035072
 O        -8.4043244978     -5.1959781038     5.2691326838
 H        -7.7929779306     -4.9581090121     4.5383497190
 H        -9.2638250181     -4.9608229460     4.8562953634
 O        -7.1929346178     -5.5104321797     7.5960682426
 H        -7.5860235518     -5.3902897968     6.7115174939
 H        -7.4452284722     -4.6901322566     8.0303450971
 O         0.3208726653      4.5470940358     2.9206291157
 H        -0.3995495297      5.0800210700     2.5334282285
 H         0.6300971134      5.1172625713     3.6510328363
 O         3.7250029518      4.6442409875     3.7179147274
 H         3.7189147478      5.1623924812     4.5488586202
 H         4.5297768230      4.9567900188     3.2947815961
 O         5.4137749842      1.3708016252    -4.1112118609
 H         4.8770710806      0.9923695749    -4.8349571062
 H         4.8814439401      2.1609961218    -3.8796277793
 O        -3.8434298950     -8.3300674599    -0.2731616313
 H        -3.3154769298     -7.9572450339     0.4630965142
 H        -3.7227647527     -9.2879390467    -0.1058545798
 O         5.4305146973     -1.1803264143     3.4533336234
 H         5.4569562535     -2.1395808946     3.3728999314
 H         5.4119847741     -0.9107207014     2.5095245265
 O        -3.7937275893     -3.8829309660     0.9005673844
 H        -3.3418909812     -3.9877679319     1.7637090781
 H        -3.1780730778     -4.3893755513     0.3267100728
 O         0.0933143872     -8.9358973514     3.7577849019
 H         1.0668679559     -9.0462481296     3.8557373943
 H        -0.2354220904     -9.7595415791     4.1700048620
 O         0.4969835063     -3.5796960259     5.3951893821
 H         0.5479818645     -2.7899800041     5.9759395835
 H         1.3494980288     -3.5604665634     4.9170793966
 O         7.1413893186     -1.7096724083     0.8588810881
 H         7.5927005282     -0.8392235434     0.8169296352
 H         7.6285075465     -2.1262886934     1.6010527716
 O         4.7391399891      1.4711805382    -9.4418155602
 H         5.3948913040      2.1524064927    -9.2053350532
 H         4.9892348068      0.7356869711    -8.8502390460
 O         6.3692123356     -0.3178030890    -8.1016394374
 H         6.7500346678     -1.0868260248    -8.5696535181
 H         6.2377778127     -0.6981847356    -7.2132360530
 O         0.7198793239      5.6986343204     8.5620946206
 H        -0.0125476913      5.1385127559     8.2164441153
 H         0.3727209741      6.5870717138     8.3419905591
 O         9.4122889100      4.0317481799    -1.9659681984
 H         9.7710694829      3.2047479726    -1.5781257316
 H         9.5357030144      4.6497378217    -1.2172167335
 O        -0.4595672344      6.8471235298    -5.8338572085
 H         0.2332179382      7.4961670638    -6.0522423703
 H        -1.1382240611      7.0899612607    -6.4899805395
 O        -5.7194019819     -6.3063437242    -0.7994666709
 H        -6.3131729228     -6.3136947717    -0.0214303578
 H        -5.0599152615     -6.9939602466    -0.5572423348
 O        -3.5797042919     -6.5089373800    -3.6647666603
 H        -3.2475642975     -6.1968577564    -2.8058251824
 H        -3.6232132161     -7.4732867024    -3.5270244039
 O         1.8297863461     -6.2624175664     3.4672903063
 H         1.6827477244     -6.3523834967     4.4336970273
 H         2.4580555673     -5.5122700007     3.4494286746
 O         8.1186017909      0.3475421834    -1.8273312502
 H         7.6612473559      0.9476513275    -1.2182705351
 H         7.3781394269     -0.1176702655    -2.2726109827
 O        -2.8814834063     -7.1436328959    -6.5752645537
 H        -3.3896886494     -7.0254003085    -5.7435031660
 H        -1.9640024441     -7.1420021337    -6.2350658906
 O         0.1124650200     -4.5828238335    -7.7342226587
 H        -0.0715660326     -4.8945563727    -8.6490773529
 H         0.8642859278     -3.9657172914    -7.8708347112
 O        -8.2692177249      0.7995118875    -3.8060094249
 H        -7.8270847502      1.1104538454    -2.9874929033
 H        -7.5229847551      0.7836019324    -4.4246818112
 O         3.0057900757      2.0755000643     5.9351499015
 H         2.4145459481      1.3315700073     6.1783082928
 H         2.3465542586      2.8079796161     5.8740405218
 O         7.2534685097      4.2273893340     4.0912272740
 H         8.0815148965      4.7459812903     4.1688218177
 H         6.9138496612      4.3306886797     4.9945596708
 O        -4.4493636180      0.9208717210     8.7626496279
 H        -4.4623020626      1.2275121732     9.6998744561
 H        -5.2139293381      0.3317190787     8.7509926550
 O        -6.2304285292      5.2175663654     3.7398328345
 H        -6.0880370741      5.6729213769     2.8811429475
 H        -6.7278947379      5.9261970555     4.2107720151
 O         4.5337364327     -1.9198415046    -6.5918758358
 H         5.0486422180     -2.3928014244    -7.2815482762
 H         4.6137516085     -2.5137646841    -5.8199639462
 O         0.9888668781      0.4763263387    -5.4182776600
 H         0.9025314303     -0.4379723274    -5.1173921060
 H         0.3231478913      0.9347184739    -4.8588255513
 O         2.0849262140     -6.5585346432     6.1335374849
 H         3.0463056530     -6.7394667603     6.2221458734
 H         1.9992917671     -5.7569473649     6.6832412275
 O         8.5436240407     -3.8756681076    -1.2820298844
 H         8.0522053432     -3.4291384413    -0.5646951128
 H         9.4089044958     -4.0184595050    -0.8354591975
 O         4.0171471420      0.6532443061     1.4288160357
 H         3.5296769570      1.2822614004     1.9853798447
 H         4.3110249773      1.2153686160     0.6830444198
 O        -0.5147362642     -5.1294625295     2.1451664442
 H        -0.0944518829     -4.4615933832     1.5564218958
 H         0.2464312752     -5.4513454296     2.6685641579
 O         0.3659191161      0.1922482872    -8.1236434633
 H         0.4952436550      0.2705546742    -7.1513102680
 H         1.0513146771      0.8082985831    -8.4619109026
 O         3.7471728509      3.4439033894    -3.5481688850
 H         3.7723830687      3.8512274648    -4.4409073304
 H         3.0590971802      4.0023624039    -3.1318581524
 O         2.6024001676     -1.5514018434     1.9140825574
 H         3.2422409281     -0.9082168665     1.5604084984
 H         2.1761367233     -1.0567824223     2.6393258980
 O         4.7341009076      3.5180456716     7.9317196045
 H         4.7406693554      2.5713951426     8.1823842042
 H         4.5432672451      3.4553031150     6.9833168785
 O        -7.1339611273     -7.2517679526     1.2888737916
 H        -7.7281325263     -7.8848436132     0.8375016653
 H        -7.6750199613     -6.4510776838     1.2417053660
 O       -10.7966556114      0.8501092012     2.1323095260
 H       -10.0744199492      0.2970734090     1.7694875267
 H       -10.4376665174      1.0678925453     3.0153369797
 O         7.3340216860     -5.9721183688    -2.0882448839
 H         7.8575859464     -5.1876756326    -1.8162535721
 H         7.2649649748     -5.8006616905    -3.0538823324
 O         3.6644934596      0.6675735315    -6.1001283026
 H         2.7162965389      0.5576912934    -5.8899529551
 H         3.8980754328     -0.2267167319    -6.4190098428
 O         0.1451677366     -6.7134591856    -1.1867775789
 H         0.3894573515     -6.5491097941    -0.2543684200
 H         0.6635467785     -7.5302640815    -1.3621064734
 O         1.0587160239      8.2714112150     1.8712076992
 H         1.2779650149      8.4661954693     2.8092800780
 H         0.5023906873      7.4699134986     1.9618409710
 O         1.1889042204     -3.6480446601     0.5952161198
 H         1.8681914816     -4.0714369880     0.0349356834
 H         1.6749467906     -2.8570438056     0.8844563415
 O        -1.3912034862      3.0821066596     1.0758528290
 H        -1.9190568922      2.8116575233     1.8602884070
 H        -0.6325343833      3.5379442470     1.4907889877
 O         9.0743044737      4.6432826794     0.6889325574
 H         9.7067226469      4.7360965141     1.4327931482
 H         8.6751786680      5.5398656178     0.7098471589
 O         2.1382589862      1.7756306139    -8.8769483270
 H         3.0123295889      1.6247043421    -9.2436217857
 H         2.1530998500      2.7390949183    -8.7065780345
 O         5.5170231031     -4.0854546007     5.8578964027
 H         5.1565735892     -3.2052329963     6.0713182319
 H         5.3409268040     -4.5869587853     6.6766998049
 O         5.5660838692      7.9187003904     4.4844118358
 H         6.4103043060      8.3993266335     4.5804809499
 H         5.5295124477      7.7636181412     3.5161054029
 O        -5.9985568679     -1.8100731413     5.3409953143
 H        -5.9955410961     -1.8379766546     6.3180055196
 H        -6.9429926842     -1.9185348685     5.1434513480
 O        -4.2480523150      3.0262457451    -2.1567020021
 H        -4.6647325605      3.7565635928    -2.6357673313
 H        -4.7226191618      2.2575671521    -2.5384541046
 O         7.7887961287      8.2981166864    -2.0060700153
 H         7.3096637706      9.1400963562    -2.1136395906
 H         7.6686404289      7.8646175248    -2.8775920512
 O        -0.3423397765      1.7922771143     4.5826888551
 H        -1.2909754620      2.0279215828     4.4185237638
 H         0.0959662137      2.6639190321     4.4951504731
 O         1.3194676423      6.5787160422     4.6006569155
 H         2.2958511491      6.6072017411     4.5904698980
 H         1.0775571792      7.5121028191     4.7432631746
 O         3.1281514461      4.8095314227     0.6425768701
 H         2.1738457007      5.0416172046     0.6094890346
 H         3.2254312331      4.4580001681     1.5540867031
 O         5.0481472960     -7.3417032651    -1.7862211016
 H         5.0688379692     -7.9208449165    -2.5772913911
 H         5.7574284052     -6.7055314396    -2.0238271330
 O         2.9619783901     -2.6564011344     8.5459295946
 H         2.3591778200     -2.2017083743     9.1816985632
 H         2.5707503522     -3.5344698191     8.4890653002
 O        -5.9096826305      3.5568353255     5.8642307942
 H        -5.7050080923      4.2113178434     5.1584916870
 H        -5.4833834641      3.9721746161     6.6509640009
 O         6.5965159866      3.5223729257    -8.7356691273
 H         6.4364531519      3.6018444226    -7.7691601869
 H         6.7397525365      4.4567186099    -9.0011395625
 O        -0.0003175473     -6.7327622863    -5.8305014899
 H         0.9364182944     -6.8167374942    -5.5725297233
 H         0.0985248189     -6.2340984731    -6.6699165033
 O        -0.3400889773      4.2710553721    -8.1311338941
 H        -0.7042008512      5.1810823652    -8.1677496498
 H        -0.5541011443      3.9259946963    -9.0208883380
 O         9.6305105999      6.2804289053    -3.7228513835
 H         9.5403270074      5.3979580018    -3.2989342841
 H         9.0942365040      6.1387438458    -4.5369017097
 O        -1.1334986206     -4.6764901252     9.5017141535
 H        -1.6537475307     -5.4670932834     9.7280166396
 H        -1.2912878768     -4.6001629580     8.5361437220
 O        -6.8268138437     -7.6631424914    -2.9624510354
 H        -6.5749195190     -7.1080780244    -2.1982841096
 H        -6.8618485578     -6.9951499867    -3.6782541934
 O         4.7203436293     -2.2831546531    -0.3635187209
 H         4.8791994457     -1.8113952349    -1.2066280141
 H         5.5463818204     -2.0541547891     0.1283247707
 O        -3.7569985463      0.1057681955    -5.6188083317
 H        -3.3515207415     -0.1288722867    -4.7698910327
 H        -3.0509041586     -0.2005045462    -6.2203040772
 O        -2.1569632341      5.6177744990    -4.1381683775
 H        -1.5400882941      6.1541691468    -4.6734541060
 H        -1.9983410824      4.7383056264    -4.5569202848
 O         1.5994368769     -4.9952678748     8.1829810166
 H         0.6768426882     -4.8261241185     8.4795341868
 H         1.8263813389     -5.7500295674     8.7559075734
 O        -0.4022867114      1.3269914885     7.5137109428
 H        -0.4119093958      1.2131233200     6.5369157060
 H        -1.1650619690      0.7637278602     7.7771770387
 O         5.2875880391      1.1138256738     4.8204863472
 H         4.4286246622      1.4013864377     5.1926164602
 H         5.0538338980      0.2268619080     4.5023061041
 O         0.2720095233     -2.1088225729    -4.4856915803
 H         0.3181982075     -2.7865656715    -3.7868588490
 H        -0.2426622978     -2.5339071012    -5.1980979715
 O        -1.6588494858      2.4461278382    -1.5527320269
 H        -2.5828759712      2.7769977857    -1.5894878454
 H        -1.4261023089      2.6619770615    -0.6413500646
 O         2.3480613699      2.5927448149     2.7271435544
 H         2.9625238544      3.2098922409     3.1889204507
 H         1.5600484119      3.1692087856     2.6437319978
 O        -3.1771060835      2.2110437487     6.6305746456
 H        -3.3101706879      1.3683709384     6.1453195851
 H        -3.9262833120      2.1578603253     7.2596560856
 O        -9.6969676782      1.3835926002     4.6035507516
 H        -9.1287106515      2.1625431616     4.4770132558
 H       -10.0306280331      1.5216259387     5.5073543876
 O         1.1355550031      4.4312117310    -5.3126028370
 H         0.7343685986      5.2212767272    -5.7242070674
 H         0.7806741223      3.6924130965    -5.8564967176
 O        -2.9670542676      5.3506376909     3.9722231218
 H        -3.6423412486      6.0229230734     3.7338911839
 H        -2.7478088088      5.6114653879     4.8919704893
 O         1.1867559894      2.8718324539     9.0612774572
 H         1.3622113667      3.6063939156     8.4634583563
 H         0.6915399549      2.2736187776     8.4519493109
 O        -4.0723134307     -6.0256652193     7.0817480322
 H        -3.2919579060     -5.8912569026     6.5069086420
 H        -4.5564329458     -6.7332433366     6.6041798521
 O        -8.0810335077     -1.4018029546    -1.6175758604
 H        -7.6077635256     -0.6811349723    -2.0786523453
 H        -7.8705563390     -2.1486352102    -2.2123372944