7
charge = -1 c15_01_qmmm_a.xyz
 C        -2.5638330769     -0.8296938462     0.1428161538
 C        -1.0705130769     -0.4402038462     0.0734361538
 O        -0.2560530769     -1.3839138462     0.1563561538
 O        -0.8326430769      0.7962061538    -0.0561338462
 H        -2.7812630769     -1.5671138462    -0.6300638462
 H        -2.7657130769     -1.3047638462     1.1034361538
 H        -3.2120230769      0.0354461538     0.0208161538