111
charge = 0 c15_10_qmmm_w_04.00.xyz
 O        -1.7770807651      1.3730916501     3.0348619229
 H        -2.5301791678      1.6254546018     3.6150998439
 H        -1.9427139904      1.9107045687     2.2441313476
 O         6.1672922683      1.7739802826    -0.3352163263
 H         7.0529784905      2.1422961759    -0.1240715144
 H         5.7199469469      2.5685554971    -0.6935949677
 O        -2.5872831675      3.1646079400     0.8764286800
 H        -2.5316833109      2.9871433498    -0.0774712673
 H        -3.5007083063      3.5269604138     0.9431317757
 O         5.0472199257      4.1470545449    -1.3745230756
 H         4.9766441021      4.0498488847    -2.3549402589
 H         4.1804873888      4.5483047945    -1.1543632215
 O         2.3420975433     -2.7097116189    -2.6710626218
 H         3.2803702134     -2.8125426993    -2.9520908443
 H         2.1052906096     -3.6354827842    -2.5362525158
 O        -6.7417869128      1.1033081653     1.3371016482
 H        -6.6447378503      2.0386119103     1.6163475142
 H        -5.9185288592      0.9446022976     0.8769605816
 O         2.9553724676      5.0624918410     2.2509614874
 H         2.1530672279      5.6226433719     2.3581993928
 H         2.7967762763      4.4547874743     3.0114883532
 O         0.5730808429      2.4820813500    -3.9255676463
 H         1.4740663594      2.1333480560    -3.8252251529
 H         0.2379190597      1.8683105392    -4.6114845374
 O        -4.7625859569     -1.7231100626     0.3205234419
 H        -5.6924999273     -1.6509295853     0.6388203904
 H        -4.8157703754     -1.2468420122    -0.5234410751
 O         0.4189563106      1.1363147590     4.7799640743
 H         0.2327909821      1.9644018815     5.2716956698
 H        -0.2695943681      1.2126321124     4.0823350954
 O        -3.8890385815     -6.1057941262     0.5975833845
 H        -4.6076893642     -6.7629806793     0.4722114444
 H        -3.3355780809     -6.3097057117    -0.1855494597
 O         5.5142746434      4.6560107639     1.3500532891
 H         4.5982176126      4.7361295739     1.6749556583
 H         5.3875721557      4.5254032703     0.3913217469
 O         3.0498535745      1.4298919076    -3.3618690517
 H         3.2101590945      0.8472903355    -2.5822674455
 H         3.8615724872      1.9804669498    -3.3353358558
 O         6.1227764466      1.8372658101     2.3327016869
 H         5.8120801169      2.0142340575     1.4211703424
 H         5.7140969608      2.5676931648     2.8442511492
 O         3.9287562047     -0.5497488604     1.8390020062
 H         3.2053469879     -0.8890566162     2.4074923574
 H         4.4693849783     -0.0763752002     2.5068407800
 O        -4.2077951538     -2.6559135501     2.7354471940
 H        -3.4577028413     -3.2754718653     2.6556109576
 H        -4.2834054928     -2.3567301139     1.8024198853
 O         3.5243142367     -0.0344935902    -1.0580443598
 H         3.2599177473     -0.9596053661    -1.2235902761
 H         3.8473631434     -0.0881417235    -0.1357127229
 O        -6.1006562583      2.3993100030    -1.4941033894
 H        -5.4744672185      1.7008110352    -1.8033130186
 H        -6.8823894927      1.8547179766    -1.2823826069
 O         2.6821443069      3.0525048944     4.0466997811
 H         2.5953315755      2.2227596538     4.5553036291
 H         1.7861787845      3.4357532142     4.1452724628
 O        -2.1139569911     -4.5190190403     2.0746179572
 H        -1.3024275801     -5.0049468634     2.3146714472
 H        -2.6999543493     -5.2317504265     1.7577096802
 O        -2.4224538203     -0.8347968844    -3.2501546854
 H        -1.6695328481     -1.4252298580    -3.4234298037
 H        -2.0635345366     -0.0013059123    -3.6292798208
 O         1.9317756736     -1.0278214287     3.6078266971
 H         1.3307171550     -0.3751581789     4.0245856666
 H         1.6997170771     -1.8551407353     4.0778984507
 O        -6.3398529089     -4.8896867110    -0.1917910044
 H        -6.6101336689     -4.7936438527     0.7424937520
 H        -5.3665887052     -4.9734323206    -0.0814058125
 O        -0.2428765340     -2.3272163372    -3.8031725116
 H        -0.5644810546     -3.2533502844    -3.7684063989
 H         0.6448856548     -2.4068453125    -3.3969657249
 O         0.1912188560      3.9998414969     3.7683953649
 H        -0.6817945300      3.8754564773     3.3460603005
 H        -0.0126567133      4.7145087226     4.4067306337
 O        -2.4115301205      2.5652972250    -1.7356394856
 H        -2.5144774582      3.5321763446    -1.8969437898
 H        -2.4016564268      2.2654649899    -2.6629185337
 O        -4.2254266854     -3.5370007304    -2.4231120617
 H        -4.7743707998     -2.7783081547    -2.1363107107
 H        -4.6037878002     -4.2690701253    -1.8937425842
 O        -1.1011739314     -4.8196206821    -2.8650321429
 H        -0.3819493467     -5.4417058223    -3.0479409315
 H        -1.5997086524     -5.2959293108    -2.1771809339
 O         2.8460872045      5.7006400879    -1.1502250511
 H         2.8400373959      6.6479464294    -0.9034741569
 H         1.9385635388      5.5546956112    -1.4698079037
 O        -2.0066514488      5.7996063749     1.0859575366
 H        -1.8016427150      4.8517671248     1.2272341755
 H        -2.9871499171      5.7972036528     1.0902950899
 O        -4.7653585787     -0.3972399433    -2.2657574032
 H        -3.8583453997     -0.4593366274    -2.6479548966
 H        -5.2969274998     -0.5231585123    -3.0586139354
 O         0.3448099036      4.8690506927    -2.3329128821
 H        -0.5609690222      4.8058630566    -1.9607036413
 H         0.4590969384      3.9878418317    -2.7551099407
 O        -1.9562487475     -6.7820407014    -1.2524586204
 H        -1.8100831580     -7.4717044002    -0.5641815178
 H        -2.2439484139     -7.3714115967    -1.9840459361
 O         0.9262363445     -5.2394828338    -0.1382735350
 H         0.9008990535     -6.1221269559     0.2857546016
 H         1.0121594645     -5.4818871755    -1.0775104261
 O        -1.5060030402     -1.2371985829     3.1037357364
 H        -2.3995008066     -1.6422393110     3.0717801811
 H        -1.7250432974     -0.3041575198     3.2871055202
 O         4.3787147042     -2.9550482498    -0.6590652062
 H         5.0211427596     -2.5246707602    -1.2738544564
 H         4.8699797643     -3.7528528249    -0.4319013769
 O         2.9643839826     -4.0378918452     1.4681294995
 H         2.2275994369     -4.4323261705     0.9580298796
 H         3.3816029778     -3.4922597002     0.7750706767