93
charge = 0 c15_11_qmmm_w_04.00.xyz
 O        -2.6310975390     -5.1781330543     2.0118095835
 H        -3.3523221234     -4.9544028910     1.3818079867
 H        -2.6843813010     -6.1464895847     2.0605755045
 O        -0.8884129091      3.6653693227    -1.5560242193
 H        -0.1534749618      4.2036127697    -1.1984606065
 H        -1.2098486204      4.2395301471    -2.2902900151
 O         0.7309798671      0.6465689059     2.6850481552
 H         0.3891735654      1.5351918365     2.4868125740
 H        -0.0871326874      0.1510947833     2.8649588702
 O         6.5288422470      2.5674496381     0.6435711691
 H         7.1715129847      2.2246444903    -0.0098424197
 H         5.6887684240      2.3391861778     0.1981515041
 O         3.3794706659      2.4351336680     2.8804745203
 H         2.6754836565      2.1335094609     3.4834672287
 H         3.5678210885      1.5802366588     2.4261939650
 O        -6.6215898565     -1.9275880052    -0.5887276741
 H        -6.4999616587     -1.7545109054    -1.5423033028
 H        -5.9255250067     -1.3777167336    -0.1969203979
 O         3.9198370785     -2.2804903136    -0.9257040760
 H         3.1617395201     -2.8778618802    -0.7568221850
 H         3.5430530688     -1.6965827252    -1.6093014670
 O        -1.8668591532     -0.1688661385    -3.2512311010
 H        -2.3025771885     -0.4195656242    -4.0947460978
 H        -2.6363576542      0.0362334258    -2.6856035002
 O        -1.9421191268     -0.0550641952     3.0784373486
 H        -2.8945016043     -0.0551767183     2.8562381147
 H        -1.9379953069     -0.5339114630     3.9317841810
 O         5.3172048287      3.2880619717    -2.2295186137
 H         4.3889315506      3.5450997868    -2.4260355849
 H         5.1883122659      2.3874751210    -1.8834468381
 O         3.1171638969      4.8578631805     1.3352682752
 H         4.0523769053      5.0077762714     1.1265629583
 H         3.1857888502      4.0952872399     1.9465835732
 O        -0.4125784905      3.1471744777     2.3873593996
 H        -0.0535767775      4.0562296788     2.3469129137
 H        -1.2381124983      3.2285908375     1.8779239289
 O         0.6503166542     -1.2500502447    -3.4965969594
 H         0.5846698314     -1.8252495531    -4.2914802059
 H        -0.2664363097     -0.9341869164    -3.3801209777
 O        -4.9159050211     -1.1488354898     1.6181890004
 H        -4.7985908589     -0.1890541100     1.7430277716
 H        -5.1130589598     -1.4596485735     2.5262133574
 O        -4.2261581908      1.5141000546     1.5481357716
 H        -3.5874239853      2.2417893866     1.6926914466
 H        -4.6891090127      1.8486283463     0.7526279682
 O         0.7478960176      5.3853272977    -0.2264468625
 H         1.6719955767      5.2792110165     0.0863964573
 H         0.3492631834      5.7809729693     0.5847354762
 O        -4.0671475202     -3.7504259040     0.1234234268
 H        -4.4042172374     -3.4665706398    -0.7510709230
 H        -4.7643191225     -3.4170932280     0.7280769201
 O         0.1677813128     -4.8799410397     1.1292393872
 H         0.6149688994     -5.1912503997     1.9479765728
 H        -0.7725824946     -5.0111785920     1.3577748734
 O         1.2383633738      2.7200365937     4.8190747995
 H         0.6188808248      2.9277011668     4.0859460380
 H         0.7906773214      1.9353888169     5.2023774073
 O        -0.4618481606      2.0226667347    -4.3184225773
 H        -1.3019357594      2.4134100584    -4.6257581939
 H        -0.7856479468      1.2651824986    -3.7919994497
 O         4.6984128498      1.0189158278    -0.7134160310
 H         4.1200954705      0.4536929844    -1.2347350835
 H         4.4800339646      0.7235589025     0.1980559745
 O        -4.2871933384     -3.5089556363    -2.5738928436
 H        -3.3386087287     -3.7476616058    -2.6946380236
 H        -4.4130323493     -3.0232786607    -3.4089697481
 O         2.6868930495     -0.2247348979    -2.1040548398
 H         1.7656540137     -0.3967725373    -2.4025547852
 H         2.8896530402      0.6609070039    -2.4604990917
 O         2.9466708094     -2.8771517809     2.4523848939
 H         2.9374889492     -3.8466189990     2.2791522951
 H         2.2274285593     -2.7793407378     3.1039457436
 O         3.0626577724      4.8497807028    -2.9389557957
 H         2.8801027610      5.5519464631    -3.5966982459
 H         3.5972618934      5.3266022366    -2.2732063439
 O         2.1569309626      2.1832995538    -3.2124886006
 H         2.2599915466      3.1406398346    -3.3547606940
 H         1.1855675257      2.0916350660    -3.3506771883
 O        -4.2270981615      0.2064861354    -1.7131828459
 H        -4.7424785012     -0.0992983831    -2.4886055353
 H        -4.9190908993      0.7669281924    -1.3032247618
 O         4.1042748902     -0.2177549922     1.5950619390
 H         5.0248092374     -0.5027227044     1.7861330909
 H         3.5898240855     -0.9941409607     1.9081517824
 O        -2.1628781825     -5.6843665388    -1.1298796955
 H        -2.7099419584     -5.0207335245    -0.6403941743
 H        -1.7155804934     -5.1008153167    -1.7854749312
 O        -2.5851165687      3.4308341096     0.6374379456
 H        -2.0807276473      3.5762045235    -0.1862877321
 H        -3.1374620471      4.2344511349     0.6701960306
 O         1.9372312326     -4.0916435692    -0.7062728192
 H         2.1783719979     -4.8856513785    -1.2243903422
 H         1.2758460714     -4.4413732670    -0.0716390583