575
charge = -1 c15_03_qmmm_cw_08.00.xyz
 C        -2.7389885714     -1.0830021429     0.2217478571
 C        -1.3094385714     -0.5213321429     0.0195778571
 O        -0.3914585714     -1.3748921429     0.0337878571
 O        -1.2202885714      0.7264478571    -0.1355821429
 H        -2.9455385714     -1.8291521429    -0.5463021429
 H        -2.7933185714     -1.5934921429     1.1841478571
 H        -3.4903585714     -0.2965821429     0.1816578571
 H         0.6872814286      1.2201378571    -0.4537421429
 N         1.6539214286      1.5663278571    -0.4956021429
 C         2.5324514286      0.4603378571    -0.1208121429
 H         3.5763214286      0.7849278571    -0.1415721429
 H         2.3266314286      0.0191778571     0.8593578571
 H         2.4175214286     -0.3407721429    -0.8469221429
 H         1.6952614286      2.2618678571     0.2402578571
 O         5.8538757818     -5.7405039788    -4.8178961559
 H         6.4959556768     -5.4153571721    -5.4768595471
 H         5.5241544988     -4.9046631794    -4.4344143023
 O        -0.6595839321      4.5339227252     5.2795651952
 H        -1.3620006020      4.5367171554     5.9578260591
 H        -1.1145179040      4.0281759684     4.5758262000
 O         9.4449549507      6.3049466074    -3.5898056469
 H         8.8345216757      5.5631628214    -3.3720905428
 H         8.8606990495      6.9052798576    -4.1002497545
 O         8.1500828772      3.9831454373     2.9919192358
 H         7.2914308950      4.2355377564     2.5935558907
 H         8.7310803257      4.1790097154     2.2246797420
 O        -7.3091657551      0.2816184387    -5.8360714958
 H        -7.7442412647      0.6774221459    -6.6199803380
 H        -6.4570066276      0.0174539756    -6.2314369592
 O        -6.3938674480     -6.7178212045     2.8585559705
 H        -6.2130243654     -5.9503351750     2.2699631374
 H        -7.3679249890     -6.7360237015     2.8120490921
 O        -8.9874901134     -5.5339207196    -4.0761955309
 H        -8.2934491735     -4.8547212013    -4.1666658631
 H        -8.7529533587     -6.1070046103    -4.8400371137
 O         5.9595498370     -5.8187328427     1.8442374056
 H         6.3371218567     -6.6981787936     2.0336445520
 H         6.5070892153     -5.5492798230     1.0698832287
 O        -7.8882887055     -3.5055430420    -1.5552908652
 H        -8.1355317001     -2.5573256135    -1.5999840748
 H        -6.9193251375     -3.4480868075    -1.5870401133
 O        -1.7018804338      5.0492224549    -0.8848618958
 H        -2.2303389665      5.7895762166    -0.5599611469
 H        -2.0168983570      4.3428210720    -0.2835890226
 O        -4.6108986418     -2.5675038327    -3.4041912668
 H        -4.2493425352     -3.0788198075    -2.6419770943
 H        -3.7729445934     -2.3596397015    -3.8723779499
 O        -7.0810189790      4.8853995570    -2.8230258869
 H        -6.8100733068      5.1098533539    -3.7304381720
 H        -6.4776925831      5.4362617065    -2.2836114228
 O        -4.7080702653     -3.3662148622     3.6830120498
 H        -3.9361716195     -2.9405342371     4.1303614688
 H        -5.4370755822     -2.8127408560     4.0561577991
 O       -10.5321571802     -3.0162424179    -0.1324642514
 H       -11.2580671262     -3.5509092086     0.2341840067
 H       -10.6070440888     -3.2297936788    -1.0874750690
 O        -8.6422228730     -0.4312897182    -1.7171612486
 H        -8.5522240985      0.4861947987    -2.0311534041
 H        -9.3795053122     -0.7715643042    -2.2634518060
 O        -4.5606652778      3.5356223180     4.5839478141
 H        -3.6231962663      3.5203576048     4.2923795857
 H        -4.9580279703      3.9141711785     3.7733941809
 O         1.6463443729      5.4949003172     4.5191309144
 H         0.6782389883      5.5278480761     4.6414542118
 H         1.7084958202      4.6440730433     4.0256510471
 O        -1.5561571379     -5.8185019884     4.3910441496
 H        -0.7099104468     -6.2673237943     4.2107599899
 H        -2.1531256997     -6.2387578694     3.7307158406
 O         3.5901299787     -7.5152063704    -2.4452960084
 H         3.9175742906     -6.6991847728    -2.8515304358
 H         3.4284320026     -7.2072301332    -1.5277721052
 O         6.7396567219      2.2500536871    -5.5552595775
 H         6.0281721766      2.2367646922    -4.8699879757
 H         6.8566682626      3.2222902730    -5.6385083595
 O         3.1883178006     -1.1468379663    -4.0273624037
 H         3.3271238474     -0.6194913218    -4.8435922363
 H         2.2835033139     -0.8637834494    -3.7928189175
 O       -10.3475657695     -0.1251181393     3.0151254240
 H       -10.5509782010     -0.2242588903     2.0585840431
 H        -9.7043721278      0.6202855583     2.9963452598
 O         3.4748564989     -6.2649557059     0.1004361993
 H         2.8123628667     -5.5939348874    -0.1865632484
 H         4.2024088905     -5.6931502494     0.4337242096
 O        -2.0154001310      3.9102388022     2.9643034342
 H        -2.2646680845      3.4935872990     2.1140151334
 H        -1.5781790440      4.7199369743     2.6485362465
 O         6.0145006104      7.4484527203     2.2401099372
 H         5.7774485405      8.3454766557     1.9267787795
 H         6.9659334774      7.5978901125     2.4458418773
 O         4.2146263762      0.7827609290     6.9680864258
 H         4.1533859312      1.7568260604     7.0360735362
 H         3.7348595182      0.6139957883     6.1320686400
 O        -8.1332194668     -3.0438746250     6.8494284310
 H        -8.0080679968     -3.9491734663     7.2125387429
 H        -8.6457926751     -3.2261364936     6.0357422471
 O        -8.5293033760     -2.6838980937     1.7907557083
 H        -9.2940756697     -2.7530849801     1.2053822928
 H        -7.8599088652     -2.3324773728     1.1488875739
 O        -2.9655801708     -1.8422473209     5.0951299996
 H        -3.1392611701     -0.8868870495     5.1563363368
 H        -2.0190213429     -1.8958320205     5.3728032223
 O         4.6308660372      3.2980912021    -0.3045403920
 H         5.1065654653      3.9705086241     0.2338187419
 H         3.9013655456      3.8352417736    -0.6851522083
 O        -9.4711804165      1.7131664233    -4.6087690616
 H       -10.3491697934      1.3736348148    -4.8793072268
 H        -8.8604142371      1.1010237667    -5.0760335344
 O        -4.8389439138     -0.9202504197     9.8024441513
 H        -4.7968483514     -1.3429347093     8.9169089397
 H        -3.8985314600     -1.0062368410    10.0731085099
 O        -6.8578636047      4.0392528705     5.8906510871
 H        -7.2992996573      4.6823978019     5.2997625917
 H        -6.0508353308      3.8249992711     5.3759440353
 O         2.0086842963     -3.5388927555    -6.9434544706
 H         2.0470123908     -3.5050999610    -7.9204288362
 H         1.4360483842     -2.7832318572    -6.7509573218
 O        -5.0160314398     -0.6050290731    -6.8038385461
 H        -4.4999847611     -0.1024274186    -7.4717314462
 H        -4.9066051392     -1.5065005001    -7.1321324765
 O         7.3943180745     -6.6964679541    -2.1025308001
 H         6.8686158086     -6.5588907734    -2.9234990284
 H         7.5906057253     -5.7669634632    -1.8775774548
 O         3.0834828745     -5.0537133364     5.4905852311
 H         2.4560219426     -4.6794435414     4.8289475786
 H         3.2224527334     -4.2550970704     6.0465940640
 O         3.4670555374     -0.9591215031    -8.7270028485
 H         4.0225001290     -0.6660764766    -9.4623879558
 H         2.9089643152     -1.6286190387    -9.1661054338
 O        -3.0597900045     -6.3500880678     6.7487357930
 H        -2.5241331578     -6.0070258481     6.0195259012
 H        -3.9605699331     -6.2475056180     6.3896389078
 O        -0.1796656895     -0.2548109447     6.0241933651
 H         0.0207354876      0.6847967750     5.8132221371
 H        -0.7925368662     -0.1029219413     6.7726526941
 O         7.0272049487      4.8891674195    -2.5179012128
 H         7.4164371888      5.1437879087    -1.6606139965
 H         6.1832982677      5.3767090877    -2.4742333709
 O         9.8750864950      3.8367180430     0.8033266859
 H        10.2163415966      3.2359174390     1.4874332675
 H         9.3466593327      3.2105074874     0.2741578232
 O        -3.7830784241     -4.6414454332     1.5168575476
 H        -4.5626563001     -5.0039193893     1.0550727824
 H        -4.1845200237     -4.1667672928     2.2571162027
 O         1.4839713516      5.3836865864     1.3943642448
 H         1.2482915244      4.5159852083     1.7668596177
 H         0.6507578180      5.8981209025     1.5278592885
 O        -0.8952430222     -3.2917615470     9.4597319331
 H        -1.1088085197     -3.2810744825     8.5040866362
 H         0.0078769411     -2.9048795823     9.4420402379
 O        -0.6334813938      7.0486998191    -2.5772521375
 H        -0.2183441480      7.5538729002    -1.8422365776
 H        -1.0708453341      6.3476095289    -2.0452515351
 O         1.1773102287      6.0818860600     7.4107719317
 H         1.2433388951      5.9554095898     6.4387393380
 H         0.5759679835      5.3549056623     7.6813748076
 O        -0.5037582542     -4.1815943431     6.5638362608
 H        -0.9494936926     -4.6845475874     5.8478692664
 H        -0.1182352421     -4.8978385382     7.1160259598
 O         0.4137191240      8.2097923061    -0.2529882242
 H         0.0530782016      8.7468175639     0.4784614396
 H         0.3953441288      7.3343047017     0.1438053650
 O        -7.0551928060     -8.2957393002    -3.2580745481
 H        -6.2531620373     -8.1788159917    -3.7716037152
 H        -6.9035201468     -9.1773474081    -2.8508878383
 O        -6.6856660507     -3.7838624562    -4.7990313414
 H        -6.1800406267     -4.1630738464    -5.5311276372
 H        -5.9826776923     -3.2871819082    -4.3170954266
 O         5.0546656371     -2.2422361265    -2.2504006646
 H         5.8907688959     -1.9181538770    -2.6642543161
 H         4.3912137157     -1.7295684793    -2.7524146062
 O        -9.0865476721     -5.4505911627     2.8013341511
 H        -8.7247601017     -4.5926540780     2.4906053668
 H        -9.4290854110     -5.8196845369     1.9559211309
 O         0.3375014093     -9.0975096896    -0.1627033051
 H         1.0982010623     -9.6674840657    -0.4522399715
 H        -0.0362756610     -9.6451645234     0.5606348167
 O        -8.0427976662      2.3445301110    -2.3816360524
 H        -7.5668851881      3.1656501272    -2.6404222570
 H        -8.5669238367      2.1782500985    -3.1904286599
 O        -3.2173993198      0.7520221609     2.7802524623
 H        -3.6246856243      0.5952641434     3.6521530842
 H        -4.0123834722      1.0037793560     2.2730885207
 O         2.6081291371      4.7790402230    -0.9097847321
 H         2.2095694032      5.2511593878    -0.1417930879
 H         1.8288242495      4.2221906815    -1.1573642994
 O         5.8569051858      2.2270035491     4.3076060685
 H         6.3330216033      3.0393970950     4.0302237613
 H         5.0153027894      2.3537961502     3.8130707049
 O        -2.5670016841      2.7021976390     0.6608507905
 H        -3.4471198518      2.3367599825     0.4476386805
 H        -2.0008607683      1.9268071881     0.4819641124
 O         6.2262032939      0.5636920581     1.7884164359
 H         6.7544860423      0.2622734665     2.5477487622
 H         6.8812931284      1.0253930670     1.2357585393
 O        10.2854555109     -0.5160697880    -3.0207072245
 H         9.6414615338     -0.0266318557    -3.5809259738
 H        10.7379761374     -1.0530124647    -3.7012866804
 O         4.3579441968      8.8506615057    -0.4969836672
 H         5.2495339473      8.5025116851    -0.2627500111
 H         3.8491247520      8.5025281028     0.2740067116
 O         1.3560857156      7.1467553197    -4.6368226392
 H         0.7306096234      6.8310306163    -3.9456534613
 H         1.6715064896      7.9891280969    -4.2448481311
 O         6.1782838333     -2.7311843192     4.1233777916
 H         5.5107095400     -2.5945528376     4.8305746057
 H         5.6407585178     -3.0849455565     3.3932375981
 O         2.2400956494      8.2145546097     5.2435427894
 H         2.0243538769      7.3413304855     4.8599372327
 H         1.5799077764      8.7880202941     4.7968214680
 O         4.2947893233      4.8360046250     4.5632032126
 H         4.4595785493      4.1822715155     5.2747612532
 H         3.3188904109      4.8633127790     4.5319222670
 O        -4.5118567593      2.2000902294    -2.1643980157
 H        -4.9125639943      2.1020507132    -1.2894260380
 H        -4.9643579867      1.4620358858    -2.6258606372
 O        -3.7983984419     -6.4069036208    -2.5384425175
 H        -3.8702670933     -5.4946684950    -2.1867256042
 H        -2.8322393740     -6.5475400416    -2.4280891367
 O         0.7927572617      3.9983007417    -8.0735345692
 H         1.0423076335      3.5134965219    -7.2583325920
 H         1.4699631474      3.6836049249    -8.6827644441
 O        -3.1862630157      6.7614755523    -5.3754142837
 H        -3.1966849218      5.9167107920    -4.9120358223
 H        -3.0719238687      6.4889372155    -6.3112428261
 O         7.4547182259      4.9124369404    -5.7428678889
 H         7.8963317027      5.2864042507    -6.5400498311
 H         6.6827489815      5.5054801554    -5.6834504386
 O         8.0665334456      1.7816082511     0.1872360498
 H         8.6679945476      1.1383556250    -0.2226909302
 H         7.5348233659      2.0628702241    -0.5836427492
 O         2.2150959660      8.7835690064    -2.4113460259
 H         2.9473419033      8.7320385089    -1.7634472303
 H         1.4530066704      8.6219879373    -1.8191492532
 O        -1.6057799696      1.8800023153    -2.5524963628
 H        -2.5813260131      1.9718977874    -2.4727227830
 H        -1.4041902566      1.4911886075    -1.6811557020
 O        -3.0638521487      7.1224459003     0.3565340939
 H        -2.9930314108      7.9985939670    -0.0646778393
 H        -3.8252254561      7.2274373426     0.9432380155
 O         3.2459636372      7.4392986827     1.5296772295
 H         2.7476159798      6.6004386986     1.6192066218
 H         4.0518998289      7.2332847018     2.0436818737
 O         4.9399053120      7.3110380152     5.4847495740
 H         4.1015670869      7.7997772235     5.5430708826
 H         4.6680511810      6.4601201165     5.0959538027
 O        -4.4733746861      1.9540102100     8.1587607011
 H        -4.4044606359      2.1421600668     9.1161245371
 H        -5.2338792543      1.3357327066     8.1526137894
 O         1.4548114543     -2.2539733127     9.0948487645
 H         1.4261282366     -2.2462363643     8.1124160332
 H         2.0945129387     -1.5275098181     9.2771036879
 O         0.2646435327     -1.5587835902    -6.1365960488
 H         0.2741934575     -0.7835139182    -5.5479566824
 H        -0.3576625333     -1.2785664184    -6.8323651070
 O         6.9278641449     -1.8905325269    -7.0353374591
 H         6.9220555922     -0.9984957240    -7.4401404460
 H         6.0016394119     -2.1771806019    -7.2073927775
 O         8.1546680416      0.6411437828     3.8740905321
 H         7.5187032001      1.3120274661     4.2071994867
 H         8.5841730395      0.3393194730     4.7000409649
 O        -0.7054072452      0.9558721965    -4.9034863256
 H        -0.8520612703      1.2276643114    -3.9859060840
 H        -0.9450133821      1.7615168560    -5.4004520796
 O        -5.0619415979     -5.2872524359    -6.8413998802
 H        -5.4615262233     -6.0107427661    -7.3515380687
 H        -4.1561323988     -5.6153896654    -6.7089634181
 O        -1.0231625161     -8.7887794321    -3.9619199660
 H        -0.2761853457     -9.1947088274    -3.4812497776
 H        -0.9754412003     -7.8724509808    -3.6138283483
 O        -2.6546947821     -1.2849999328    -4.8433960130
 H        -2.7849719905     -1.0751030642    -5.7953921871
 H        -2.1359892548     -0.5305796309    -4.5553344117
 O       -10.0165075914     -6.0567432361     0.3925173308
 H       -10.1122495817     -6.9922337337     0.6573199311
 H        -9.3905695117     -6.1516228625    -0.3537903756
 O        -4.8683800986      6.7586863328    -1.9330169373
 H        -4.4195937787      7.3931425984    -2.5217518478
 H        -4.9098622842      7.2940681340    -1.1149576975
 O        -5.1381742283      2.1145603314     0.7288516105
 H        -5.0789606762      2.9872779234     1.1808499540
 H        -5.7689723194      1.6469661946     1.2950115725
 O        -9.6945006824     -2.2610833640     4.6422454345
 H       -10.2398218317     -2.9791526203     4.2718864911
 H        -9.9509827472     -1.4904264782     4.0867478231
 O        -5.1959001479     -5.7240469829     5.1690974275
 H        -5.0807129744     -4.8934829845     4.6886989916
 H        -5.4953075658     -6.3067053170     4.4470088585
 O        -0.7608379659     -5.8276056738    -3.6164280275
 H        -0.0195271335     -6.1258851389    -3.0405201335
 H        -0.5949810532     -4.8834098693    -3.6636113658
 O         8.8366158536      0.3418637015    -5.2706778986
 H         9.4940721430      0.9190340587    -5.7134557212
 H         8.0095038092      0.8547834900    -5.3840087177
 O         6.9800116331     -3.8897290667     0.0419410796
 H         6.3801319543     -3.1087146322     0.0592769365
 H         7.2216474132     -3.8923674746    -0.9090637384
 O         6.8205841760      0.7157414945    -7.8808102558
 H         6.8615094241      1.1970763967    -7.0250241638
 H         5.8639551023      0.7631148345    -8.0805995041
 O        -1.0109869095     -5.4268135672     0.9555793932
 H        -1.8618174508     -5.1607112013     1.3611315224
 H        -0.7676617080     -4.6310825329     0.4673682977
 O         5.3501715293     -1.2309803023     8.8223905526
 H         4.7284174261     -0.7484702591     9.3969382102
 H         5.1718703231     -0.7791306285     7.9679096584
 O       -10.5500026187     -1.3621596546    -3.1724398101
 H       -11.4858986793     -1.0768975538    -3.2345668538
 H       -10.6899717189     -2.3349154685    -3.0494646960
 O         5.1601552815     -1.7707522322     0.6003052932
 H         4.7896338591     -1.7285994337    -0.3010775950
 H         5.3935896276     -0.8331065075     0.7600537800
 O         4.2937292109     -3.6599948938     2.5044501381
 H         4.9452822106     -4.2872849326     2.1293028895
 H         4.2974042519     -2.9624230784     1.8170159036
 O         0.9096955072      2.1942861598     6.2040752211
 H         0.7889280943      3.1421665503     6.0921852233
 H         1.4518251756      2.1556337699     7.0145037031
 O        -8.3512308545      1.9214704470     3.4563971439
 H        -8.3049150309      1.9527193903     4.4371996673
 H        -7.5291285318      1.4255068757     3.2730016946
 O         5.2348130563     -4.4324502654    -8.1504394297
 H         4.8753096696     -4.1596783469    -7.2803075704
 H         5.8509560366     -5.1407231752    -7.8687790855
 O         7.0219993427     -0.4211347137    -2.9540986681
 H         7.0520504491      0.4732368535    -2.5409857622
 H         7.3815883075     -0.2308570345    -3.8291679897
 O        -3.8774000702      4.4644062624    -3.4956805717
 H        -4.2772180399      3.7232502789    -2.9915680387
 H        -3.9475343567      5.1972376270    -2.8451139894
 O         7.0956222706      1.5653978519     7.2055381031
 H         6.4374091739      1.2029159631     6.5838783750
 H         7.9114140065      1.1239151109     6.9061706064
 O         4.5886371067      6.2222020909    -2.3950926288
 H         4.3132420579      6.9021470191    -3.0351270296
 H         3.7494202644      6.0877698742    -1.9082586934
 O        -0.6112496269     -2.9118240931    -4.0366543654
 H        -1.4803067627     -2.4903364793    -4.1601223741
 H        -0.1625400638     -2.5860265653    -4.8487197580
 O         1.4910572317     -2.3694738949     6.4952294992
 H         0.8486204650     -1.6684210084     6.3465853802
 H         0.9080876796     -3.1566991607     6.5399149044
 O        -5.3017625660     -9.4079298393     2.9836088360
 H        -5.5431850469     -9.3029931195     3.9288886864
 H        -5.7226638210     -8.6371177218     2.6019470545
 O        10.4787105869      1.6616166549     2.7116153986
 H        11.0223425159      2.0197997987     3.4452489116
 H         9.6386504446      1.5071925238     3.1624475035
 O        -4.1481997765      6.5918923494     3.1625188958
 H        -3.3720630445      7.0309278856     3.5761209092
 H        -4.8716972601      7.1856525060     3.4524666161
 O       -10.6779348554     -0.3864457386     0.4122874618
 H       -11.6229244985     -0.6498294030     0.4481343941
 H       -10.3053571517     -1.1709958974    -0.0135437849
 O         3.0529679888      5.1074700550    -4.9314502283
 H         2.3129218657      5.7519860441    -4.8733210804
 H         2.5891364136      4.3534789916    -5.3642403043
 O         1.1300943026     -0.7731905563     3.6162589563
 H         0.5029216865     -0.2315866313     3.1067282089
 H         0.6566055042     -0.8213227677     4.4731421052
 O         9.4734939981     -2.2367122658    -1.1172835316
 H         9.3981281548     -1.6720663545    -0.3158940698
 H         9.5378729024     -1.5582711630    -1.8185519278
 O        -2.2018414653     -9.6506013910     4.1468068278
 H        -2.6603967989     -8.9700158641     3.5952934122
 H        -2.9532276761    -10.0273784121     4.6432823847
 O        -6.9074122263     -1.8868871789     3.9733165301
 H        -7.4592565920     -2.2702669410     3.2660434359
 H        -7.5859644042     -1.6265279015     4.6302283085
 O         3.4999517795      0.2741591125    -6.3623614588
 H         3.9848345811      1.0721576207    -6.6532583982
 H         3.3297075199     -0.1630991153    -7.2228027522
 O        -0.3634486120      1.3671110748     2.3836514286
 H        -1.2018394963      1.6976060090     2.7789489015
 H        -0.7023198893      1.0496395312     1.5230359253
 O        -9.6157482395      3.9227927389     1.9559681579
 H        -8.7924979456      3.4587370621     2.1832827799
 H        -9.9161884077      3.4471050310     1.1649796618
 O         0.3149814782      3.6519616380    -1.8521617157
 H        -0.3349861377      4.1077995725    -1.3020185426
 H        -0.1716980984      2.8512758486    -2.1398982266
 O         1.0368274070     -6.9174659077    -1.8940132155
 H         1.7990269655     -7.2644300145    -2.4020866501
 H         0.8853043807     -7.6554834832    -1.2911836860
 O        -7.9976302316     -6.2932459583    -1.3407891849
 H        -7.6289446738     -6.6524923031    -2.1843069891
 H        -8.0691312003     -5.3408166366    -1.5799173660
 O         2.0342611525      1.7829604599    -3.2846142570
 H         1.5439391900      0.9650403166    -3.0497029628
 H         2.0078481830      2.2653652027    -2.4361055886
 O         1.7945715798     -6.3889565778    -5.0158230692
 H         2.5638785460     -6.9930039400    -5.1277330988
 H         2.2679273478     -5.5553039757    -4.8221493581
 O         0.2140492804     -7.2053532229     2.4764707860
 H        -0.2444309952     -6.5732194681     1.8780381273
 H         1.0443183385     -6.7223117073     2.6663424782
 O         3.6274616080     -0.2536647070     4.3585116396
 H         2.7569328533     -0.3548661842     3.9407119583
 H         4.1341112912      0.2132971799     3.6608740082
 O        -1.6857659048     -0.5271026078    -7.7812069818
 H        -1.9872018157     -0.6365224042    -8.7153291410
 H        -1.4212999364      0.4036113302    -7.8099150731
 O        -1.8515140934     -7.5640589744    -0.6247954344
 H        -1.6083621080     -7.0432235832     0.1705161837
 H        -1.1018024131     -8.1941346898    -0.7020790592
 O        -6.7693914432     -1.3642522844     0.0214480550
 H        -7.3849961171     -0.8221934168    -0.5243814710
 H        -5.9070083491     -1.3014740623    -0.4460414089
 O         4.2078261177     -2.3715977533     5.9960940962
 H         3.8995421219     -1.6427117057     5.4091699718
 H         3.4579051837     -2.4552218418     6.5977181018
 O        -7.8171537053     -6.3591351546     6.4430395316
 H        -7.7711871225     -5.9674750010     7.3391780018
 H        -6.9445730455     -6.1067423335     6.1001630787
 O        -0.9263331585     -3.4049043326    -1.3620056039
 H        -0.6073204996     -3.2476531040    -2.2786813340
 H        -0.5711704584     -2.6106017871    -0.9239564774
 O         1.3262410113     -2.5226077297     1.6391113624
 H         0.7347334444     -2.0401954007     1.0379541200
 H         1.5517884870     -1.8062878670     2.2659429801
 O         7.3774019194     -5.1159511328     4.7142705698
 H         6.7549599314     -4.4067950911     4.4696008853
 H         6.7611718222     -5.8609508913     4.8905231690
 O        10.0677636728     -0.3740178841     0.8523356229
 H        10.1379546368      0.3311572805     1.5271960949
 H        10.6278373996     -1.0691667810     1.2485090908
 O         9.0652003785     -4.5150954034     1.7072296546
 H         8.9384405197     -3.7798895339     2.3160774394
 H         8.5171866552     -4.2328254897     0.9366039611
 O         6.5904425276      2.1812795491    -1.9283190203
 H         5.8393510010      2.3686006884    -1.3262900869
 H         6.3431068812      2.7437764840    -2.6793950302
 O        -3.5358522476     -4.0603845467    -1.4241921606
 H        -2.5848927045     -3.7989262735    -1.4452062759
 H        -3.7696508261     -3.8311037488    -0.5224854239
 O        -5.5627227398      4.5967765512     1.8212695050
 H        -6.2763238351      5.0504351390     1.3410532622
 H        -5.0443040670      5.3568920288     2.1647335670
 O        -6.4117801074     -1.0471889110     7.3881426024
 H        -6.9779479672     -1.8167405220     7.1637958930
 H        -7.0749187479     -0.5009734336     7.8628598754
 O         1.4659283076      3.2144320727     3.0745897222
 H         2.3023242380      2.7345789532     2.9792495520
 H         0.8032566167      2.5001934394     2.9725814267
 O         0.8026293088     -0.6340621402    -2.7087157590
 H         0.1485620511     -1.2477194641    -3.0922159301
 H         0.6034994752     -0.6880566635    -1.7512937555
 O         2.6054895698     10.0819744218     1.6227149801
 H         2.7176760351      9.1068982760     1.7084848458
 H         1.9440752706     10.2573991271     2.3242178438
 O        -2.6937810195     -5.8911369362    -5.8275858114
 H        -2.3534331610     -5.8524569245    -4.9137258451
 H        -1.9325308807     -5.5294881706    -6.3199097944
 O        -0.0018036127     -5.1414095579    -6.4928830699
 H         0.8101205044     -4.5938144470    -6.5029236715
 H         0.3171913328     -5.8828853603    -5.9349402311
 O        -7.7459385525      6.0130475789     1.0148175023
 H        -8.0120329586      6.4603853656     0.1825559265
 H        -8.3710404441      5.2553370266     1.0277615287
 O        -6.1647880401      0.1650768364     2.2707725130
 H        -6.3257422464     -0.3143975158     1.4317360540
 H        -6.0158965635     -0.5847071136     2.8882715165
 O         5.3184278790      6.6605844366    -6.0770669360
 H         4.9981080344      7.3734651732    -6.6747146810
 H         4.4643389956      6.3690136669    -5.6936995848
 O        -2.3785105067     -0.1917208432     7.6236327273
 H        -3.1349467686      0.3801721656     7.3621557358
 H        -2.8579498166     -1.0408949791     7.7149331126
 O         6.9706165969      8.3404383727    -0.5706009547
 H         7.2576230660      7.4181390969    -0.6870252693
 H         7.6377214354      8.8241443147    -1.1041962264
 O        10.8134884651      1.8799433541    -1.8132165333
 H        10.9222964691      0.9756528706    -2.1741084656
 H        10.1635929565      2.2582462293    -2.4559511174
 O         7.9401612828     -3.9466170424    -2.5312807634
 H         8.5019814954     -3.2976206705    -2.0836114357
 H         8.0477603833     -3.6647865259    -3.4644044384
 O        -4.7098191168     -7.7275432152    -4.7943579823
 H        -4.2410006818     -7.4291007930    -4.0079820064
 H        -4.4806550098     -7.0190310188    -5.4289274525
 O       -10.0481702398      2.1921904974    -0.2054112565
 H       -10.0975035097      1.2669397337     0.1092853741
 H        -9.2144276918      2.1491009983    -0.7032721468
 O         8.7524311348     -2.4455570194     3.4576187733
 H         7.8559170792     -2.6315021557     3.7981012331
 H         8.7141069836     -1.4735337662     3.3855830243
 O        -7.6995251673     -8.4782383482     0.2041009577
 H        -6.8057561329     -8.6570974703    -0.0965448972
 H        -7.9234763336     -7.7033424305    -0.3602714853
 O        -3.9409149221      1.6095620445    -8.1533973796
 H        -4.1820063824      2.1921040417    -7.4045423164
 H        -3.0874238521      1.9911558843    -8.4338807173
 O         5.6307823290      4.8078886378     2.1188557857
 H         5.8000066740      5.7660453723     1.9827674342
 H         5.2597375853      4.8035439445     3.0263535788
 O        -6.0281453556     -5.5809535918     0.4096257691
 H        -6.8466875817     -5.4843057896    -0.1318117932
 H        -5.7053130924     -6.4556772109     0.0964216053
 O        -3.6559773470      3.4166284442    -6.1256913552
 H        -2.7313370846      3.5921542351    -5.8398364700
 H        -4.1038645645      3.5098101026    -5.2540333542
 O         3.8953384424      2.1070269460     2.1219658131
 H         4.4110657688      1.2882338762     1.9135119724
 H         4.2318739167      2.7000399316     1.4114071174
 O         1.9809055048      2.5583750570    -5.8501376408
 H         2.2492140755      1.7081647178    -6.2120153289
 H         1.8556303587      2.3333541877    -4.9015856532
 O        -4.3827800884      0.4263918274     5.2904760837
 H        -5.0129328541     -0.0675410202     5.8552820904
 H        -4.7876187336      1.3155968286     5.3113349819
 O         8.9404634632      3.0752306095    -3.6060991142
 H         8.2276101593      3.4295552190    -3.0365622669
 H         8.5419873751      3.2595565655    -4.4855278035
 O         4.5879741864      2.9604148719    -3.9714710445
 H         3.7552004728      2.4540100133    -3.8042399096
 H         4.2456503628      3.8734313017    -3.8879681522
 O         2.7663629709      0.0479908139     9.5736612868
 H         3.1488113182      0.4143144922     8.7590393572
 H         3.0227772407      0.7319358541    10.2222640596
 O         8.5736880684      5.9737360384    -0.3805091615
 H         9.0894539369      5.4759250184     0.2867304536
 H         9.2377471575      6.5819468357    -0.7088589453
 O         4.1774191873     -8.8650785918     0.8613459500
 H         5.0725608314     -8.8403802049     0.4511592819
 H         3.9350558966     -7.9155207911     0.8452061307
 O         3.8377265542     -4.7058213074    -2.8407169080
 H         3.1758570197     -4.4850915545    -2.1499556269
 H         4.5073457292     -3.9946516837    -2.7356090356
 O         4.4664903002     -3.2219082337    -5.8234621900
 H         4.2367522398     -2.8951101020    -4.9273718248
 H         3.5845597960     -3.4579295761    -6.1516492242
 O        -1.3383279014      3.8784564606    -4.9096988834
 H        -0.4494467186      4.1025283189    -4.5670011573
 H        -1.8824922581      3.8960674560    -4.0939866165
 O        -7.9939781673      1.1769020884     5.9982210518
 H        -8.8627978105      0.8043464843     6.2580199396
 H        -7.5233016363      1.2304148092     6.8518719171
 O         8.3347595143     -3.4898779694    -5.2453149948
 H         8.2332871280     -4.2950637252    -5.7958412155
 H         7.7799724108     -2.8642747417    -5.7614443976
 O        -4.3639048134     -3.0241287647    -8.0682440572
 H        -4.5804289443     -3.7122598803    -7.3988492381
 H        -4.9055726679     -3.3515911391    -8.8018092230
 O        -1.6616553867      7.7543315388     4.1732698254
 H        -1.2825148920      7.6511943364     5.0716447822
 H        -1.8816070189      8.6926939607     4.1666367764
 O         3.9488614089      3.6901731809     6.9175231953
 H         3.2261896588      3.8012510010     7.5680303489
 H         4.6814804459      4.1023357449     7.4232637895
 O        -9.0369010378     -2.5229680968    -5.3873363043
 H        -8.1760943289     -2.8733224361    -5.0707336942
 H        -9.2514297770     -1.8831085561    -4.6720235206
 O        -3.5896938059     -2.6522203862     7.6546355444
 H        -3.7614999609     -2.8407807498     6.7070093895
 H        -3.8609364549     -3.5129443967     8.0443468427
 O         1.8417052173     -4.9278895141     2.7862955173
 H         2.7593820738     -4.6314196438     2.8428338426
 H         1.3974664382     -4.1249657462     2.4307439766
 O        -3.0264108556      4.0366196126     6.9355041579
 H        -3.2929504404      3.3243780382     7.5502786137
 H        -3.6578057869      3.9033191570     6.2026100238
 O        -4.9637115928     -7.9834186037    -0.2070365740
 H        -4.1832368198     -7.6532203850    -0.6861596533
 H        -4.6200683949     -8.8433686660     0.0971788872
 O        -3.3508065582     -7.3786064120     2.9170473069
 H        -4.2440870330     -7.7574607529     3.0388752635
 H        -3.4827563799     -6.8758547752     2.1086062014
 O         1.9093697221     -4.2914898425    -0.9102579983
 H         1.0724736637     -4.7959410495    -1.0148597309
 H         1.6642040972     -3.7237215322    -0.1487509212
 O        -5.3710397542     -0.0239597554    -3.2394183494
 H        -6.1366739966      0.1080336867    -3.8375318471
 H        -5.1100688814     -0.9201606765    -3.4853974102
 O        -0.9238307194      6.2203285277     1.9988082828
 H        -1.7938578261      6.3808737223     1.5915056321
 H        -0.9783664460      6.8461168318     2.7492243605