7
charge = 0 c15_13_qmmm_b.xyz
 N        -0.9433805882     -0.3825176471     1.8378094118
 H        -0.6191505882     -1.2000276471     2.3443194118
 C        -2.3259805882     -0.6219776471     1.3710294118
 H        -2.6831105882      0.2604923529     0.8478394118
 H        -2.3271205882     -1.4546176471     0.6732294118
 H        -3.0147105882     -0.8493576471     2.1813694118
 H        -0.9553205882      0.3607523529     2.5285494118