14
charge = -1 c15_03_qmmm_c.xyz
 C        -2.7389885714     -1.0830021429     0.2217478571
 C        -1.3094385714     -0.5213321429     0.0195778571
 O        -0.3914585714     -1.3748921429     0.0337878571
 O        -1.2202885714      0.7264478571    -0.1355821429
 H        -2.9455385714     -1.8291521429    -0.5463021429
 H        -2.7933185714     -1.5934921429     1.1841478571
 H        -3.4903585714     -0.2965821429     0.1816578571
 H         0.6872814286      1.2201378571    -0.4537421429
 N         1.6539214286      1.5663278571    -0.4956021429
 C         2.5324514286      0.4603378571    -0.1208121429
 H         3.5763214286      0.7849278571    -0.1415721429
 H         2.3266314286      0.0191778571     0.8593578571
 H         2.4175214286     -0.3407721429    -0.8469221429
 H         1.6952614286      2.2618678571     0.2402578571