576
charge = 0 c15_14_qmmm_w_08.00.xyz
 O        -8.8159932550     -0.2913208038     4.7730335141
 H        -9.3695517441     -0.1727290474     5.5586281510
 H        -9.1110650738     -1.1586285625     4.4207584557
 O         2.4110163384     -2.0206268708     8.5107347932
 H         1.6876426476     -1.8126743368     9.1312690627
 H         2.0270017186     -2.7615942657     7.9797827435
 O         7.7175318708     -1.7164132337    -5.9868307885
 H         7.1980661193     -0.9860194286    -6.3949774536
 H         7.7240696185     -1.4001355761    -5.0605429871
 O        -9.3701858822      0.1198076453    -0.2237068821
 H        -8.9677579007      0.3182761444     0.6485903962
 H        -9.6278411076     -0.8073852054    -0.1065467335
 O        -5.5948367028     -4.2404004866     7.2221342441
 H        -5.8314373639     -3.4548599049     7.7552164876
 H        -4.7245713150     -4.4937433535     7.5876364709
 O        -6.2675225422     -8.9928899822     1.0511031746
 H        -6.5732031090     -8.2597045793     0.4694491228
 H        -7.0204624222     -9.5926934390     0.9940655929
 O         5.0545371645      3.7447088754    -7.1203318460
 H         5.4547627637      3.9879200965    -6.2750213604
 H         5.0117898362      4.6267274470    -7.5547974358
 O         2.5996300858      6.5922642884     5.7522868264
 H         2.0700387765      7.2550329469     5.2628340950
 H         3.5039137217      6.9191091584     5.5856366031
 O         1.9591866162     -9.4303894897     2.0145601741
 H         2.1247826390     -8.4670257005     1.9136454591
 H         2.7525630622     -9.7677357884     1.5562585198
 O         4.9692173909      3.0954413421     6.1871042550
 H         5.2680661111      3.5743602979     5.3853735002
 H         5.5763678468      3.4808429210     6.8557921291
 O         5.2726454010      5.9787579320    -2.4044978317
 H         5.4879837951      6.7111731186    -1.7935966250
 H         5.5531004223      6.3222043759    -3.2667562674
 O         2.8754657405      4.4689898312    -2.5386733105
 H         3.5990002637      5.1017884689    -2.6698799964
 H         2.5597634170      4.7143938298    -1.6487680184
 O         5.6001826161     -2.4870901350    -2.5809364948
 H         5.9966796232     -3.2909036586    -2.9518634632
 H         5.2643454491     -2.0443064713    -3.3659710741
 O         3.6729438515     -2.5153662557    -4.7075834301
 H         4.0752985553     -1.6899466373    -5.0584196575
 H         2.7331849167     -2.3936952698    -4.9616667386
 O        -7.4293845917      2.2162108234    -2.3155097547
 H        -6.6185862322      2.0070374990    -2.8259480632
 H        -7.0892361798      2.2496320645    -1.3956848952
 O        -1.4124853869      3.7913786401   -10.1407723431
 H        -0.9918818651      3.4798556538    -9.3061016494
 H        -2.0791839764      4.3988967525    -9.7405613952
 O        -5.3398059128      2.0843720190     7.5576277547
 H        -5.2790788312      1.3762383754     8.2269247699
 H        -4.6816789873      2.7284721137     7.8797244990
 O        -6.5393864651     -6.7676860561    -3.7608245266
 H        -5.9728654991     -6.8909616880    -2.9705511508
 H        -6.4945005525     -7.6764285320    -4.1288125458
 O        -4.0839557220      4.2959431263    -5.0385153777
 H        -4.9687474674      4.7203923374    -5.0815343588
 H        -3.5114893004      5.0493813567    -4.7750693748
 O         1.5149704808     -2.3589503688    -8.4334222045
 H         1.2333361531     -2.1484114623    -7.5221078902
 H         1.1512849469     -1.5964555520    -8.9308980479
 O         3.1062109043      0.3776295561     1.9814751667
 H         3.4394540151      0.5484390110     2.8985655714
 H         2.6669554651     -0.4779270328     2.1394057034
 O        -5.7548006630     -0.6508620403     1.4994797714
 H        -5.0382897113     -1.1992861075     1.8866219446
 H        -6.4169132003     -1.3401532516     1.2946211977
 O        -1.5004732158      0.3049712490     6.8970506267
 H        -2.2942798677      0.5464926674     6.3825099121
 H        -1.7865280328     -0.5252507676     7.3288720421
 O         3.3608708255     -4.5696951138     0.1169403353
 H         3.4721310984     -4.4971822071    -0.8538926322
 H         2.3760025890     -4.5693427579     0.1856140152
 O        -1.6331389635     -4.9433846096    -4.8326693905
 H        -1.8819663455     -5.8402354037    -4.5309871937
 H        -2.3102714344     -4.8027895191    -5.5221771560
 O         4.0117867876      8.6165377400    -1.2807307700
 H         4.8290114373      8.5249887052    -0.7473278157
 H         3.3480877340      8.4713935037    -0.5721002991
 O         4.2347587791     -2.1194883381    -7.9795070126
 H         4.3480598079     -1.1933633916    -7.6849268572
 H         3.2601975013     -2.2142419041    -8.0008084083
 O        -4.9908047288      2.0616494016    -3.7685244806
 H        -4.6172986638      2.9456909502    -3.9663948539
 H        -4.2495934214      1.5105884197    -4.0906412103
 O        -0.4205326552      4.5511437374     9.3364793787
 H         0.4950753310      4.6359924536     9.0022724157
 H        -0.6631596276      3.6746885732     8.9898445197
 O         3.4090416933      3.5700342129     0.3387110336
 H         3.3239966928      3.5022642277     1.3075896561
 H         3.0418406606      4.4747972986     0.2434976853
 O        -4.5870572060      1.8698189551    -0.8710013130
 H        -5.3745710335      2.0238988586    -0.3131430102
 H        -4.6330776329      2.6422508460    -1.4672689236
 O         6.2833379718      4.1420105416     3.9233510406
 H         7.1040178565      3.8203707643     3.4908657092
 H         6.4400201761      5.1070665288     3.9669245231
 O        -1.1505831262     -9.7029322663     2.8696288473
 H        -0.7419574201     -8.8249646490     2.9678325027
 H        -1.4022595213     -9.9111966802     3.7915386681
 O         2.2793204123      8.3104812250    -6.4397909297
 H         3.0227369544      8.9461412110    -6.3605346119
 H         2.4134500859      8.0094927993    -7.3657085863
 O        -7.8083824975      1.8358984333    -5.4046507857
 H        -7.7920468273      0.8498104680    -5.4667721014
 H        -7.1325024063      1.9473799270    -4.7023072046
 O         2.1810092832      8.2942515492     0.7029294293
 H         2.5929443063      7.8764322903     1.4759653688
 H         1.9767943921      9.1950105225     1.0570772202
 O        -0.6135070659      7.5249713388     2.9580616270
 H        -1.5699277583      7.3572840576     3.0348581926
 H        -0.2499539853      6.7484882870     3.4374614809
 O         0.4208458027      3.3736447876    -3.0788897741
 H         1.2655331253      3.8780642409    -3.0545475254
 H        -0.0326187104      3.8617969899    -3.8023791542
 O         2.4808673843      5.7692080885    -5.3790640315
 H         2.6636890788      6.5290365636    -5.9758844725
 H         2.2798527234      6.2259772928    -4.5293885166
 O         0.3295780247     -6.7843445446     7.6700700035
 H        -0.2267310812     -7.4068421466     7.1550162201
 H         1.2184157548     -7.1921399731     7.5792329422
 O        -2.7149230813     -3.4293037655     4.7908732789
 H        -2.7096395267     -2.9696159464     5.6450297762
 H        -2.7040509408     -4.3549469243     5.1158992534
 O         7.0423558791     -4.7006961912    -0.2777833840
 H         6.6459322155     -3.8302149768    -0.4845672203
 H         7.9817765644     -4.5159568663    -0.4829820248
 O        -4.3114230059     -6.8645306383    -2.1699410859
 H        -3.7071336622     -7.1594650777    -2.8924748012
 H        -4.1688964783     -5.9080648617    -2.2157393069
 O        -3.4731791040      1.7425884501    10.2231585918
 H        -3.3452426476      2.7033854030    10.3873385873
 H        -3.1763858218      1.3904685829    11.0855360753
 O         0.8161523109      6.4604156250    -8.4140114895
 H        -0.0096832251      5.9930644240    -8.1472052037
 H         0.4525883382      7.3684806697    -8.4879733851
 O         7.5599184882     -3.3419043240     3.1603678512
 H         6.8418026873     -2.7893740496     2.8046375177
 H         7.5467760601     -3.0324920516     4.0939767286
 O         3.8991382632      2.0045877952    -4.0220108077
 H         4.7964029362      1.8456999836    -3.6684755550
 H         3.7129366939      2.8665376392    -3.5975501107
 O        -1.3355409949     -3.4565121131    -0.4402188510
 H        -2.2468017273     -3.6254270617    -0.1568088932
 H        -1.4740385456     -2.7474534310    -1.1024900118
 O        -4.4852063329     -7.0534063292     5.0625739750
 H        -4.7350563290     -6.5640695699     4.2569835084
 H        -4.8565442490     -7.9464711529     4.8706177316
 O         0.2483309188      2.1606598213     2.7941616427
 H        -0.6545817535      2.1321620636     3.1652385515
 H         0.7589905463      1.6222855765     3.4418062960
 O        -5.9042281551      5.5387907133     7.2632804414
 H        -4.9240801380      5.5531696859     7.1772679714
 H        -5.9973628002      5.1169989885     8.1416395655
 O        -1.9849501015     -5.8870264361     5.4786776864
 H        -1.2632175364     -6.3294006956     4.9794914841
 H        -2.6470409611     -6.6050297336     5.5723206427
 O         1.1920517487     -2.0732421447    -5.5190439565
 H         0.4121805749     -2.3048686728    -4.9690864903
 H         1.2073373222     -1.1000969168    -5.3859126711
 O        -6.6828660135     -1.4773550028     8.0183437519
 H        -5.9939205573     -0.9564539799     8.4720685670
 H        -6.5700995984     -1.1833013649     7.0980922014
 O        -2.9824476273      6.5326390807     3.8230167080
 H        -3.7311446177      7.1381004782     3.8389138834
 H        -3.3839556513      5.7201560130     3.4338736044
 O         5.3255031097      7.2011386572     3.2368188597
 H         6.2008146645      7.3957378215     2.8549016980
 H         5.4835883111      7.4714403340     4.1648918833
 O        -3.7767666442     -8.6407929286    -0.3950960992
 H        -4.7133603302     -8.8620883714    -0.2162608649
 H        -3.8713773942     -7.9409351614    -1.0589949501
 O        -4.1787554778     -3.6330398472     0.2873066936
 H        -4.0519442614     -3.6558606903     1.2536951912
 H        -5.0137334598     -4.1190530831     0.1456159609
 O        -6.5440584824     -3.6295090590     4.8013451311
 H        -6.6483177748     -4.4985298497     4.3750425581
 H        -6.4455695081     -3.9176251208     5.7406551348
 O         0.1365976928      3.0518121186    -7.8101542262
 H         1.0983461243      2.9718474118    -7.6371210624
 H        -0.1853341341      3.3643971402    -6.9513795747
 O        -7.4543666853     -7.4473674227    -0.9021026147
 H        -8.3159283786     -7.5360905609    -1.3666747196
 H        -7.0458405973     -8.2972328198    -1.1882091016
 O        -1.1770829432     -3.1243691461     9.3021478361
 H        -0.6932428945     -2.3292324005     9.5994994278
 H        -1.8834056996     -3.2160210569     9.9710646962
 O        -0.9436922033      1.9905289262     8.8600877912
 H        -1.8910539337      1.9208909240     9.1071841824
 H        -0.9170065416      1.4843254598     8.0194367794
 O         2.9655814177     -2.4349279805     2.3342249505
 H         2.4795970081     -3.0126373398     1.7388888595
 H         3.1975197584     -3.0559720499     3.0656758642
 O        -7.8837910100     -4.5518196137    -2.9506033193
 H        -7.4437933381     -3.8786343122    -3.5249500318
 H        -7.4355460701     -5.3590974026    -3.3056496364
 O        -0.0435356646     -5.3894824281    -2.1231249048
 H        -0.6393058430     -5.0429658867    -1.4295052092
 H        -0.1033913120     -4.6883504604    -2.8119773633
 O        -2.2066949220     -1.3403610155    -8.5646640380
 H        -2.8381424500     -1.0389786726    -7.8749363614
 H        -1.4996978846     -0.6680165935    -8.4507825745
 O        -2.0307532210     -6.8298697808     1.8511180120
 H        -1.5897002032     -7.2919067954     1.1049927282
 H        -1.3665743408     -6.9230659699     2.5457733824
 O        -4.5762989544      1.8519063374     2.8418082155
 H        -4.8973860377      1.0572393319     2.3653636981
 H        -5.2482002868      1.9182921537     3.5501867870
 O         8.4037513156      3.1390861195    -6.5531370308
 H         7.9234734092      3.8421368413    -6.1013412622
 H         8.1822700763      3.3457889435    -7.4940850524
 O         8.9256011962      3.5829830209     2.6082357562
 H         8.9470617059      3.2551280024     3.5168131195
 H         8.7651404663      2.7831796601     2.0830918245
 O         4.7325264982     -7.3813099403     3.7320927494
 H         4.6861780965     -6.9725986389     2.8348912409
 H         5.5503439046     -6.9719587743     4.0907177185
 O        -0.4715214951     -3.0214786987    -3.5286864477
 H        -1.2082195380     -2.5934026968    -3.0442919395
 H        -0.9905597706     -3.5021218400    -4.2107189491
 O        -8.1319793155      2.4623761144     6.9711379111
 H        -7.2121909665      2.6987840038     7.1633326774
 H        -8.2982274966      1.7239795756     7.5813058874
 O       -10.2609310734      2.5248938937     5.0874710557
 H       -10.8473561935      2.4509245267     5.8775285858
 H        -9.3898310192      2.4914301951     5.5298294003
 O       -10.3435982947      2.6964457278    -0.5894785801
 H        -9.7426048727      1.9246700215    -0.6683040000
 H       -11.1300077674      2.2491315608    -0.2136860096
 O         2.8380538933      4.3867265685    -9.7795601386
 H         3.2050544859      4.7202814909    -8.9347868577
 H         1.9848920134      4.8706279097    -9.7898571759
 O        -3.0423791681     -5.0027593926     8.0291495348
 H        -2.6598404282     -5.6259397155     7.3762987532
 H        -2.3471156447     -5.0144573298     8.7190934796
 O        -3.4738627830      4.1350209624     8.3276688829
 H        -3.3411712879      4.8422172802     8.9947091269
 H        -2.8397942617      4.4213595958     7.6424470892
 O        -3.5043226933     -4.3625775963    -6.7199800146
 H        -3.1615342519     -4.3973306575    -7.6362390753
 H        -4.3821883145     -4.7585588217    -6.8461999470
 O        -4.8041348111     -0.8737358378    -1.2500971067
 H        -5.1663873836     -0.9318011271    -0.3441510745
 H        -4.5938957192      0.0843819875    -1.2980347126
 O         1.5986218447      2.1218773824    10.0163336668
 H         2.1340550433      2.0558346225     9.2000137633
 H         0.7026275301      2.0209359601     9.6295741009
 O        -0.2878980930     -3.4488906058     3.4985284039
 H         0.2822111499     -2.9124566155     4.0840482489
 H        -1.1243813107     -3.4813537610     3.9905606728
 O         2.3952379200     -6.3803800067     5.1014526871
 H         3.2530918855     -6.6231279881     4.6963345522
 H         2.4309864048     -6.9600257017     5.8897370919
 O         9.2976089208     -3.2003537440    -0.8766703375
 H         9.9077545502     -2.8983557980    -0.1694712815
 H         9.9240597905     -3.5073146774    -1.5561828997
 O         0.8483311543     -4.3253718158     1.0977990146
 H         0.4449918621     -4.2566908107     1.9803399859
 H         0.1017867717     -4.0449464979     0.5277781602
 O         4.9236264175     -6.3139432731     1.1169752631
 H         5.7868201339     -5.9539943329     0.8168173288
 H         4.2938758684     -5.7528359334     0.6097953146
 O        -3.8718858372     -2.4106868056    -4.5627391484
 H        -3.6492487688     -2.8848664301    -5.3822500694
 H        -3.6127650517     -1.4993476880    -4.8034814967
 O         1.7563708718      3.0889146199     5.5714417336
 H         1.7578270872      3.3731471882     6.5082334279
 H         1.9020275197      2.1258656428     5.6420515984
 O         2.1780583079      7.2416031221    -3.1635248167
 H         2.8999422204      7.7209064296    -2.7110853695
 H         1.9294242591      6.5562149199    -2.5152895944
 O        -6.9194275581      2.0777809467     4.2618119788
 H        -7.2286687965      1.9425799743     5.1788763852
 H        -7.5631397571      2.7297622247     3.9182402954
 O         0.7957081254      9.7994692956    -3.3117921058
 H         1.4564540668      9.0987510605    -3.4952756791
 H         0.6641740549     10.2014984071    -4.1957005656
 O        -0.3484933951      4.8168632342    -5.1816608076
 H         0.3749845549      5.2394326846    -5.6747384650
 H        -1.1573700972      5.1324900769    -5.6398029525
 O        -8.4050067150      4.2497198668     3.4262804184
 H        -8.9404773368      4.8090404168     2.8260302796
 H        -7.6990362999      4.8616401053     3.6948037847
 O        -8.5690812589      4.3637142730    -3.4490808323
 H        -8.2048769845      3.5213332233    -3.1339898299
 H        -9.5275747556      4.2445379209    -3.2765475746
 O        -3.6296950606     -4.2490803840    -2.2673233305
 H        -3.4559592008     -3.5443550874    -2.9206073795
 H        -3.8605133282     -3.6794896234    -1.5003815045
 O         5.0862989915     -2.1380303058     0.1935479736
 H         4.3748720191     -2.6893345671     0.5719134730
 H         4.8747759087     -2.1352548985    -0.7557350172
 O        -0.0520678925     -4.5221494158    -9.7786512751
 H         0.7225289346     -4.3359954753    -9.2148220039
 H        -0.0912195067     -5.4941147028    -9.7446219393
 O         6.4791957295      7.4967245059    -4.5262001944
 H         7.2668503661      8.0191681572    -4.2634063751
 H         5.9065111688      8.1923940111    -4.9204861480
 O         8.5277526091      6.3097164380     0.2539156529
 H         9.1345841015      6.3973430387    -0.5144140382
 H         8.4936156681      5.3285998446     0.3227571942
 O         9.1378831288      3.6631219864    -0.4002760109
 H        10.1080067753      3.5240438414    -0.3599593501
 H         8.8153668200      2.7560553618    -0.2440443330
 O         0.2630175255      0.3600255862    -8.5380476766
 H         0.1602571810      1.2160832847    -8.0891858259
 H         0.9585632136      0.5906507819    -9.1656153389
 O         5.1391257439      1.4503362541     0.4885562235
 H         4.6279247437      0.8122929124     1.0147187691
 H         4.5876633288      2.2527703405     0.5944623544
 O        -6.1803072610     -0.7144321052     5.4786710275
 H        -6.9532449761     -0.2723621993     5.0502505856
 H        -6.2872013211     -1.6399195424     5.1616353797
 O         0.0745236619     -8.3679495511    -2.7626309854
 H         0.1014839093     -7.3918082588    -2.7964813928
 H         0.8400635206     -8.5928274734    -3.3256353811
 O         7.6339468820     -1.0112175418    -0.2984830339
 H         6.7320411041     -1.3955065615    -0.2236273365
 H         8.1884491053     -1.8208295047    -0.3760249140
 O        -6.2559919533     -2.2180310607    -3.3228664162
 H        -5.4504637961     -2.3295197612    -3.8689647603
 H        -5.8505302578     -2.0105195273    -2.4624364815
 O        -7.4810494371     -2.5780743004     0.8112392844
 H        -8.4304710824     -2.3894710524     0.6285210070
 H        -7.3926431013     -3.4619271172     0.4081121805
 O         5.8480962335     -5.9764260921    -2.3629759420
 H         5.7408146538     -5.3876731996    -3.1327030913
 H         6.2331447601     -5.3819154612    -1.6815378163
 O         1.8308317667      4.6758854060     7.7761345906
 H         2.7336767878      4.7259732949     8.1546010492
 H         1.9180054918      5.3698727968     7.0891473057
 O        -6.6053063154     -4.9340943939    -0.5665283750
 H        -6.8920671137     -5.8611034019    -0.4015025292
 H        -6.6043597856     -4.9660422844    -1.5463021553
 O         1.0606831472     -5.7356910635    -5.5136297699
 H         0.7040963634     -6.4646166620    -6.0503242127
 H         0.2504019671     -5.4000702535    -5.0666496521
 O        -9.3534051173     -2.6930780815     3.6691339611
 H        -9.3897912126     -3.4921195467     4.2338255457
 H        -8.6710493597     -2.9678009107     3.0247293080
 O        -1.6129409997      4.0132472822     6.0917229664
 H        -0.9709488099      4.6207105831     5.6532439201
 H        -1.7702935902      3.3833260043     5.3691898145
 O        -2.2713443849      5.0295021579     1.0242151852
 H        -3.0540129175      4.8407511963     1.5952716377
 H        -2.5993318781      5.8504543560     0.6005502982
 O         3.4838712150     -3.8722635351     4.5036112198
 H         3.0703736588     -4.6621272781     4.8931140807
 H         4.2729127633     -3.8537358184     5.0628403854
 O        -4.2982655696      4.5025896483     2.7229935363
 H        -5.0586270227      4.8623953873     3.2098210672
 H        -4.4194755574      3.5332324245     2.8462294285
 O         1.4383361346     -2.1919791599     5.1249249162
 H         1.2858165620     -2.7332164904     5.9268676141
 H         2.1862619875     -2.6834648340     4.7227778258
 O         6.2467920299     -3.7852221334    -7.1900725552
 H         5.4504367337     -3.3992768893    -7.6167150278
 H         6.7605504763     -2.9784045186    -6.9920208065
 O         5.4533857419     -4.2669039475     6.2411375997
 H         6.1434071609     -4.9326181892     6.0363894475
 H         5.4753909859     -4.2683346198     7.2176844154
 O         1.8684280051      0.5104332785    -5.5025901137
 H         1.7505382269      1.2130596050    -6.1514488515
 H         2.3602654819      0.9921364522    -4.8021143629
 O        -2.2478367449      2.1069942805     4.0973572373
 H        -2.6361597789      1.8130198148     4.9450402826
 H        -2.9564609686      1.9483552632     3.4671357700
 O         2.9811950475      1.5269245325     7.7364587179
 H         3.4048394385      0.6643798800     7.5398106833
 H         3.6669340363      2.1324399892     7.3802699353
 O         0.3522184307      5.2993133951     4.5107782952
 H         0.6828054016      4.3720871992     4.5267908600
 H         1.1182564203      5.7215454297     4.9600755681
 O        -3.2067043019     -2.1703250935     7.4073383755
 H        -2.8934648413     -2.9577744370     7.9091505993
 H        -3.7751756165     -1.7542522337     8.0932532379
 O         0.2023525901     -7.0636299062     3.7022179471
 H         0.9436469560     -6.7335996817     4.2605566317
 H         0.6329723292     -7.1733927343     2.8216555835
 O         6.8113223094      4.9614927055    -5.1629390632
 H         7.1199850721      4.8443906474    -4.2423729727
 H         6.7130868150      5.9369606772    -5.2085723955
 O         2.4055671884      1.0733047632   -10.2107723484
 H         2.4438107566      1.9813017668   -10.5778581267
 H         3.0824124593      1.1330486656    -9.5043826750
 O         2.7965067796      6.3895314910     2.6984337340
 H         2.8514160487      5.5085739317     3.0999510288
 H         3.7398715636      6.6494628907     2.7177627349
 O         0.7145154771      0.4711341950     4.9981729280
 H         0.1041191200      0.2297380364     5.7254754640
 H         1.1721434952     -0.3695043522     4.8673184938
 O         5.2690742345     -0.3568030896    -5.0605082055
 H         5.2266293870      0.4891514519    -5.5567622774
 H         5.7099757655     -0.0810724544    -4.2262624331
 O         6.5440266170      8.1452109452    -0.5148504164
 H         7.0576953927      8.6225258832    -1.2048207389
 H         7.2480204400      7.5585382380    -0.1598041692
 O         6.9431695848      0.2313874701    -7.7049433565
 H         7.1295186320     -0.3497208368    -8.4784624753
 H         6.3939628289      0.9499933934    -8.0823494695
 O        -6.5674020770      5.4474969468     0.7315369740
 H        -6.6128225329      5.3638722439    -0.2469522007
 H        -5.6134699198      5.5230412218     0.9224542654
 O         2.7036512743     -4.1245451445    -2.4653645572
 H         1.8285591254     -3.6800026691    -2.4099868649
 H         3.1056949332     -3.6036433644    -3.1878600656
 O        -8.9177447153     -1.3022517326    -2.6602538299
 H        -8.0296193234     -1.6781920811    -2.6527400352
 H        -8.7867930967     -0.4912295159    -2.1248941098
 O        -1.9887443356      2.4898410085    -0.0518414135
 H        -2.9234485522      2.3470950818    -0.2593726029
 H        -1.9703033642      3.4252059626     0.2115469927
 O        -7.2002093854     -0.9792002665    -5.5419891655
 H        -6.8593007823     -1.4636113761    -4.7624850139
 H        -7.7633847783     -1.6743704713    -5.9607768701
 O         2.2055403026     -9.2191105066    -4.3145414105
 H         2.8573357501     -9.9103911441    -4.5573013481
 H         2.8071496436     -8.4410081987    -4.2579982083
 O        -1.8036368861      5.7944040637    -1.9349094387
 H        -0.9008228567      5.4173409601    -1.9741581987
 H        -1.6677468816      6.4831365110    -1.2479565275
 O        -4.2969014311      7.1658490706     0.6039991799
 H        -4.2813139100      7.5996550018    -0.2798111217
 H        -3.8349514855      7.8543759913     1.1316033462
 O        -2.9861186313     -7.5975763438    -4.3230255027
 H        -2.5964899222     -8.4791486723    -4.1613468658
 H        -3.6866947834     -7.8293738660    -4.9755197307
 O         1.3983602987     -6.9730304743     1.2488408144
 H         0.7743404759     -7.3880827302     0.6229918271
 H         1.2422687002     -6.0250597702     1.0614320861
 O         0.3913500998      4.2988330231     1.0349151433
 H        -0.4926741937      4.6498321716     1.2673546247
 H         0.4842132897      3.5406011550     1.6527627198
 O        -3.4652616631      7.0559814613     6.5681231475
 H        -2.6544087281      6.7817617665     7.0522619052
 H        -3.2214956388      6.8203417256     5.6526581517
 O        -1.4684611118      1.5655557088    -2.7220023988
 H        -1.4723900636      1.7889858685    -1.7694588937
 H        -0.9334902859      2.3074271739    -3.0609117726
 O         6.4409616609      0.8783311952    -3.0198659171
 H         7.3659320382      0.6606599550    -2.8629815994
 H         6.2831717355      1.5635714359    -2.3432729320
 O        -6.0774704818      5.6300367712     4.4091484488
 H        -6.1575178082      5.2942783748     5.3279302923
 H        -6.0797977855      6.6001745602     4.5662257088
 O         0.7392537586     -3.8332193529     7.4981462876
 H         0.7689861251     -4.8151193486     7.5425446043
 H        -0.0960339009     -3.6787178851     7.9896891806
 O        -4.5090384589     -0.5321568103     9.2246214516
 H        -3.9452974952      0.2373740093     9.4225734598
 H        -4.7812186865     -0.8113971581    10.1260763246
 O         4.2882876469      0.7144756196     4.5275107823
 H         4.5251848702      1.3212822413     5.2499055900
 H         4.2477802259     -0.1392911694     5.0173431533
 O         4.3297757004     -0.6347225385     6.9526608501
 H         3.7555969478     -1.3370819111     7.3213720566
 H         5.1828175594     -0.9240007550     7.3517511710
 O        -0.7704166940      7.5918777159     0.2303126859
 H        -0.3316641889      8.4711801884     0.1912270675
 H        -0.6236874981      7.4294389339     1.1933244388
 O        -6.9458932393      2.4686544964     0.6118514081
 H        -7.7419273829      2.2196561430     1.1210161311
 H        -6.6837959068      3.2861003356     1.0918680174
 O        -4.7818980637     -2.4852187851     3.3061440223
 H        -3.9693103992     -2.5996618271     3.8425907400
 H        -5.3672097200     -3.1394116884     3.7412073926
 O        -0.8265334131     -8.0859602381    -0.1003503853
 H        -1.6843358344     -8.5469622133    -0.2271752140
 H        -0.4680690868     -8.1081627827    -0.9988337649
 O         9.3323778534      1.5849934297    -4.3740951603
 H         8.9604465096      1.8981528384    -5.2337565450
 H         9.0120142183      0.6518964537    -4.3451478309
 O         4.7292488290      1.5761418997    -8.7591807923
 H         5.0725130309      1.7614061696    -9.6607339486
 H         4.9265284806      2.4168175509    -8.2988520740
 O         8.7240029601     -0.6540362990    -3.1489983189
 H         9.5542771975     -0.3687134073    -2.7050931044
 H         8.2588207633     -1.0949406738    -2.4078534650
 O         5.2606185765     -6.9464339272    -6.3338665816
 H         4.9830135940     -6.0166865350    -6.3923920830
 H         6.2328862819     -6.8179211949    -6.3354660131
 O         3.0091511229     -6.7437522528    -3.0843189419
 H         2.4358799680     -6.0740334810    -2.6658839229
 H         3.9050987571     -6.4133781748    -2.8491444652
 O         0.3221474042     -1.1442836647    10.2793320461
 H         0.4426079602     -1.1942674392    11.2543907239
 H         0.0739445534     -0.2112988669    10.1737962981
 O         2.4935003910      3.2198786438    -6.4996984733
 H         2.3750950235      4.0048660734    -5.9398019351
 H         3.4563266556      3.2478725856    -6.6315092972
 O       -10.8371088382      1.2769509224     2.5947799309
 H       -10.5620298078      1.7742913658     3.3950863687
 H        -9.9783381685      0.9529962627     2.2689641252
 O         5.4617883169      3.0893745924    -1.7190087047
 H         4.9945688341      2.7313060376    -0.9396762731
 H         5.2747867266      4.0408273070    -1.6410705234
 O         1.8741915695    -10.1353047785    -1.0674411224
 H         2.6930184994     -9.7894626662    -0.6589887126
 H         1.7672401370     -9.5151551665    -1.8288937907
 O        -6.9192275457     -5.9636678023     3.2864432282
 H        -7.5620517350     -5.7153902591     2.5908125642
 H        -6.0969994173     -5.9368748680     2.7468373100
 O        -9.7617681404     -5.0311695525    -0.9084890595
 H        -9.0991978502     -5.0634277224    -1.6341747334
 H       -10.3783022974     -5.7325612237    -1.2166979371
 O        -2.9980098186      6.8128682961    -4.3679495353
 H        -2.6114178620      7.5958137566    -4.8148995999
 H        -2.4080889807      6.7063046255    -3.5907995853
 O         3.5834825221     -4.6733158541    -6.5669943506
 H         2.6827166837     -4.7907773922    -6.2056329651
 H         4.0005358943     -4.2030568638    -5.8124790066
 O         5.7925181354     -1.1720446122     2.8406903028
 H         5.3247569068     -0.4149113270     3.2109908181
 H         5.2519288257     -1.3719831154     2.0406150511
 O        -3.8820424998      0.8685061379     5.7159996468
 H        -4.3728334669      0.0261471830     5.5931676688
 H        -4.5075094752      1.3865622111     6.2680928116
 O         4.0693495380     -9.0358464872     0.3780436707
 H         4.9427848455     -9.0065841517    -0.0752030952
 H         4.0794055903     -8.1447335592     0.7959467796
 O        -4.1507359169      4.3243813593    -1.9059081340
 H        -4.7308353497      5.1122920491    -1.9466169378
 H        -3.2801483533      4.7171847737    -1.7568780774
 O        -2.1244586189     -1.2612412599    -2.1295426433
 H        -1.8354498081     -0.3694777948    -2.4250604050
 H        -3.0587562866     -1.0961425781    -1.9184424764
 O         1.9481719978      5.9151579104    -0.4360723201
 H         1.3462497865      5.3278634649     0.0542103145
 H         1.7582225108      6.7513217152     0.0348087099
 O        -6.5370213814      5.5928304464    -1.8828681520
 H        -6.7506180101      6.4167817250    -2.3749945392
 H        -7.1814369079      4.9892213190    -2.2967995396
 O         8.4546867343     -0.1439884019     3.2415479776
 H         7.7250105401     -0.7898486496     3.3648848904
 H         8.1463562969      0.3604640069     2.4582714920
 O         1.1746109329      8.8049955539     4.7168616122
 H         0.6313710139      8.6518470801     3.9113626690
 H         1.5567732479      9.6837334138     4.4953399475
 O         7.9717222875      1.5254368811     0.9108156254
 H         7.0081638331      1.7441006761     0.8823091214
 H         7.9660915284      0.6886096539     0.4059880058
 O        -4.7745854455     -0.6241004685    -7.2892787828
 H        -5.2165927603     -1.4221200379    -7.6577882108
 H        -5.4583046442     -0.3626315684    -6.6481668414
 O         3.6331785426      3.8135847513     3.3086654506
 H         3.2870984729      3.6520211469     4.2075977109
 H         4.5935282115      3.6851135794     3.4460359012
 O         2.9582713784     -4.6865198411    -9.2213119091
 H         2.6950453250     -3.7598106437    -9.1775645340
 H         3.2202664780     -4.8636891554    -8.2924628729
 O         6.1562840174     -4.4295073410    -4.5277259697
 H         6.1726196233     -4.2501654830    -5.4839011453
 H         7.0891472778     -4.6814349276    -4.3761618540
 O        -4.5869646763     -6.2955767831     1.8633747877
 H        -4.5554928719     -7.2435265935     1.6143405553
 H        -3.6218045485     -6.1213533121     1.8723381433
 O        -9.0014529883     -5.5765009761     1.6957663732
 H        -9.7560669641     -6.1537085165     1.9502189537
 H        -9.1749031691     -5.5035741982     0.7362719159
 O        -2.8637123740      0.2615656795    -4.7918036147
 H        -2.1787444940      0.6321690514    -4.1918610749
 H        -2.7316988374      0.8057628126    -5.5988006310
 O        -8.1377179360      0.4865814825     2.1147269731
 H        -7.2851344686      0.2101178179     1.7304793681
 H        -7.9602621087      0.2913130651     3.0631434090
 O        -2.6513095851      2.2831562846    -6.5269412112
 H        -3.0712653587      3.0844443823    -6.1472014300
 H        -3.1727441546      2.1749163909    -7.3519679114
 O         8.4479847434      4.3517029564    -2.9961874475
 H         8.4553190516      4.1242980343    -2.0452374150
 H         8.7522340745      3.5151283091    -3.4051930189
 O       -10.2530143448     -2.7413090100     0.2778162474
 H       -11.0333508920     -2.9905446007     0.8183849119
 H       -10.2085271236     -3.4725285577    -0.3447162292
 O        -5.6725726416     -7.1467452248     7.6668826666
 H        -5.3438486611     -6.7843949276     6.8299221127
 H        -6.0946877959     -6.3627379768     8.0548815107