499
charge = 0 c15_05_qmmm_bw_08.00.xyz
 N        -1.1946606667     -0.3085533333    -0.8999320000
 C        -0.3496106667      0.2156666667    -1.9975920000
 H        -1.3647606667     -1.2957533333    -1.0657020000
 H        -0.7901406667      0.0606266667    -2.9794920000
 H        -0.1957506667      1.2814666667    -1.8532820000
 H         0.6173693333     -0.2788733333    -1.9719620000
 H        -2.1123506667      0.1214866667    -0.9650920000
 O         5.4450775337      1.3310209400     3.0380266900
 H         4.9390065731      2.1733719366     3.0410643326
 H         5.5364435831      1.1469211152     2.0755416525
 O        -2.8257086454     -7.0198428930    -6.4533012573
 H        -2.6710430409     -6.1056665185    -6.1278425506
 H        -2.6625209591     -6.9171138569    -7.4088836088
 O        -4.4393310086     -5.0208223617    -8.6937314492
 H        -3.6996411645     -5.6603445894    -8.7620349392
 H        -3.9658336730     -4.1750449188    -8.6678420892
 O         2.8986065105     -2.7757605280    -9.8042293981
 H         2.1273179020     -2.5412145764    -9.2467764832
 H         3.5339259831     -2.0842489360    -9.5727154798
 O         1.1431891276      1.0812371259     7.2570608800
 H         0.2472537235      0.6914988657     7.1312432823
 H         0.9648168862      1.6518772390     8.0349477274
 O         0.4496594900      6.6368757171     5.4795936345
 H         1.1079596869      7.0193658776     6.1000960354
 H        -0.3931905888      6.9528493074     5.8678625568
 O         3.0579886383     -4.5533945800     6.4207698459
 H         2.8075053141     -3.9929033931     5.6688186077
 H         4.0159972805     -4.4479381209     6.4334206262
 O         7.3653991419     -3.1982650485     8.2833971116
 H         6.5242947828     -3.2402393975     7.8077526696
 H         7.4713315803     -4.1309100393     8.5467667475
 O         6.1627112087     -5.0563727114     1.5399096972
 H         6.9127794965     -5.2544715591     0.9476965193
 H         6.3746175871     -4.1311511151     1.7889774207
 O         4.7256860285      5.1938052722    -2.2923441420
 H         4.9271727884      4.4868684441    -1.6386914032
 H         4.4935598294      4.6541135026    -3.0770230691
 O        -8.0511104443     -0.1646913748     0.0813145598
 H        -8.1606307211      0.2737128833    -0.7944364208
 H        -7.8946839613     -1.1028623600    -0.1665821842
 O         9.4645131333      2.0211001903     0.9905369624
 H         9.1634229189      1.2087375219     1.4563571415
 H         8.9970900437      1.8822241064     0.1406082914
 O         2.5554558975     -4.1724817086     2.1842375737
 H         2.3084170267     -3.7491590090     3.0173119463
 H         1.9113470862     -4.9221065490     2.1662697639
 O         1.2569792114      4.9308469421    -7.4667078190
 H         1.5967160766      5.4846618626    -6.7510312038
 H         1.1832052071      5.5780371284    -8.1906009179
 O        -5.0926859857      0.1767129255    -1.8000890548
 H        -4.6084268213     -0.5876644827    -2.1854318129
 H        -5.5391203270     -0.2869755984    -1.0651602944
 O         1.6719150378     -4.4493068943     8.8249780148
 H         1.5721778833     -3.4671722607     8.8551787920
 H         2.0621448904     -4.5316697530     7.9194743987
 O        -4.7045193399     -2.6950778164     2.8693892441
 H        -3.7438387059     -2.8123321143     2.6683701476
 H        -4.9275283205     -1.8769669786     2.3955010178
 O        -2.5079819237     -5.8940492392     3.7587614163
 H        -3.3403079333     -5.7416958894     3.2677061008
 H        -1.8705919604     -5.3309957225     3.2724058532
 O         0.6657605604     -6.0503456547    -8.0869546154
 H         0.2320897983     -5.3618343782    -7.5460050805
 H         0.2373675438     -5.8915532023    -8.9548563679
 O         6.2179628066     -0.6113086115    -4.2914227862
 H         5.6913561121     -1.3368044282    -3.9059697882
 H         6.8525521260     -1.1484229631    -4.8086413500
 O         0.2276634576      2.4251517579     9.3531661847
 H         0.9498491661      2.8551741728     9.8625319517
 H        -0.3202823390      3.2107675172     9.1566759462
 O         4.5817712190     -2.9218774712     9.2605856945
 H         3.8621646522     -2.8571392906     9.9249328838
 H         5.0209391411     -3.7471225071     9.5552271096
 O         4.5562134524     -2.9964624745    -3.6797621788
 H         5.3565173784     -3.5472093052    -3.7733955031
 H         4.2997902231     -3.2096670120    -2.7629789112
 O         7.2206805267      1.7470688882     6.8627949489
 H         6.2574166367      1.9138035417     6.7269146391
 H         7.5149481121      1.5914749545     5.9515745480
 O        -4.0821056016      0.4453005930    -4.9564662740
 H        -4.9479057919      0.5527533658    -4.4996692012
 H        -3.5520939511      1.0875942327    -4.4709186166
 O        -6.2643534041     -2.4728087245    -3.6989924498
 H        -5.3466363758     -2.4910207590    -3.3523400971
 H        -6.2121373230     -3.0907358955    -4.4561789947
 O        -2.6697865180      2.2204291521     2.6889011007
 H        -2.0142564269      2.8738590253     2.9902843578
 H        -3.2161270588      2.7476121406     2.0747265568
 O        -4.6398003423      2.7400414524    -1.3717061345
 H        -4.9121798811      1.7944328518    -1.4203978476
 H        -5.4490916873      3.1509393789    -1.7519104347
 O        -0.7563502431      2.2330983945    -5.3134155312
 H        -1.4508095602      2.2425042741    -4.6136292176
 H         0.0617594642      2.1812660985    -4.7685767035
 O         4.4649307935     -5.7900487321     3.6136165563
 H         5.0049911070     -5.8036686085     2.7944560120
 H         3.6886135708     -5.2492173576     3.3370204345
 O         0.6905574469     -6.1933818246     2.7582723165
 H         0.0229199456     -6.7332762550     2.2714676478
 H         0.9750606922     -6.8423224064     3.4380912104
 O         4.0968662752     -2.1029515127     1.1652056701
 H         4.2774278975     -1.8559668644     2.0933718523
 H         3.5035985302     -2.8699301125     1.2902867684
 O         5.0428828181     -1.2377497223     3.9537977370
 H         5.2451632269     -0.2830227443     3.8153627995
 H         4.8388225010     -1.2175686976     4.9156054640
 O        -1.1000036402     -8.5288467014    -5.1131242967
 H        -1.2899709912     -8.0131125953    -5.9325590181
 H        -0.3515476344     -7.9983779279    -4.7572397322
 O         0.8633002721     -0.1052144982    10.1484402614
 H         0.6994667227     -0.0087545533    11.1125005047
 H         0.4636498599      0.7031899699     9.7990338891
 O        -0.6220808964      4.7073927688     8.0789942656
 H         0.2849023803      5.0700352680     8.1500232289
 H        -1.1236661495      5.5119092116     7.8351043413
 O        -6.2885278584     -5.1614322964    -0.8985346324
 H        -5.9965445927     -5.4510550899    -1.7942311154
 H        -6.6992049462     -5.9841953305    -0.5592980237
 O         2.6286568751      2.7138277306     4.7878687000
 H         2.8336180346      3.5621366373     4.3425509178
 H         1.8650794251      3.0145594864     5.3372796459
 O         0.0554807035      3.4042483453     5.5454512733
 H        -0.3849903481      4.0033671342     4.9044155840
 H        -0.2141170620      3.8277346458     6.3851594803
 O        -4.4420026221      7.6602573650     1.3355066457
 H        -3.5495929876      8.0044633310     1.0987642478
 H        -4.1818550978      6.9779872030     1.9853830485
 O         3.8839166345      0.0632413612    -9.5602150126
 H         3.1203618085      0.6321286032    -9.3524627822
 H         3.7490713413     -0.0425780467   -10.5212575209
 O         5.6384499127     -3.3429581843    -7.5637801313
 H         5.7255787409     -3.1064995244    -8.5177557660
 H         4.7287072730     -3.0234384910    -7.3907886179
 O        -1.7533727964      7.4894920515     2.7404766224
 H        -1.5776458912      8.4192821333     3.0064571189
 H        -1.2954509682      7.4844770081     1.8715465924
 O         2.0218297637      5.2609698034     3.3831893350
 H         1.9315082178      5.6211116230     4.2869739055
 H         1.9819542957      6.0629168764     2.8537724980
 O        -7.0510713665     -5.4640988679    -3.8741826268
 H        -7.8188061876     -4.8888176144    -3.8025856916
 H        -7.4427662176     -6.2887579481    -3.5069519185
 O        -2.8529413700     -4.5303955531    -5.1049120021
 H        -2.6859558506     -4.8932625040    -4.2088981529
 H        -2.7600877329     -3.5690603591    -4.9333924096
 O        -5.7143195933      0.4354420917     1.4856309056
 H        -6.0226142372      0.7936114772     2.3424674051
 H        -6.5553362254      0.2798752896     1.0022379084
 O        -2.6927125577      2.2732627001    -3.1473419378
 H        -3.0764186518      3.1350331022    -3.3712218321
 H        -3.2160078804      2.0265502257    -2.3511932790
 O         4.8058059197      4.0142423577     2.7322510029
 H         5.7370057089      4.0465912924     2.4821959503
 H         4.8322305951      4.3899807950     3.6397488638
 O        -0.0612460339     -3.0963360355     0.2134761519
 H         0.3739518279     -3.9668013339     0.1699544487
 H        -0.1832362418     -2.8826629578    -0.7407890177
 O         1.0356578787     -1.9883596298    -8.1316089431
 H         0.5232509185     -2.7000016470    -7.7006775206
 H         0.4271077183     -1.2151564182    -8.0709779541
 O         2.8021137152     -7.4348171634     6.7496341936
 H         2.8539954227     -6.4603080262     6.6856985504
 H         3.7175219400     -7.7093916364     6.9495184983
 O        -6.0181412733      1.1033610827     8.4905726706
 H        -6.9503002137      0.8190401821     8.5068024273
 H        -5.7910297549      0.8979770453     7.5605843894
 O        -7.3908477177     -4.4889842677     1.5477929790
 H        -7.8288027910     -3.6214918604     1.4491589382
 H        -7.2437810529     -4.6873819226     0.5950804829
 O         2.1735710504      0.0526035593     5.0420975434
 H         2.3637980232      0.9459298348     4.6735813040
 H         1.7405899071      0.2968851989     5.8701056379
 O        -0.6449450185     -1.8250171748     4.5372621684
 H        -0.6379364734     -0.8361495720     4.5607162435
 H        -0.9613428988     -1.9597599710     5.4587188388
 O        -2.7766365053      1.7106350111     8.0920052915
 H        -2.6954917570      1.7750124663     7.1178422023
 H        -3.3478511846      2.4834142499     8.2685687524
 O         2.7570998379     -3.9096750966    -1.5287382733
 H         2.1243329909     -4.6026677698    -1.2489425920
 H         3.5824670030     -4.2357739380    -1.1068509139
 O        -3.5652218815     -6.3342823529    -0.6942443355
 H        -3.4451659800     -5.4135540595    -0.4371866669
 H        -4.0219427654     -6.2141085971    -1.5625574465
 O         3.2461714504     -7.5235853929    -2.3398382479
 H         3.1390757793     -8.4919104432    -2.2935456280
 H         3.1954807214     -7.2865986188    -1.3890021487
 O        -7.3968992239     -2.4909531629    -1.1902478078
 H        -7.3025072989     -3.4633385414    -1.2591369423
 H        -7.3066996611     -2.2423216415    -2.1312761871
 O        -3.7736058894      5.8350823758     3.2361119132
 H        -3.5852640177      5.3020279619     4.0378344718
 H        -3.0622309767      6.5089717153     3.2605883915
 O        -4.2907559626      3.9667676998     7.9788614843
 H        -4.1004164222      4.9115346280     7.7793341113
 H        -5.2489911209      4.0218928014     8.1586505618
 O         1.0998516868     -5.7621385060    -0.2812146107
 H         1.8722118557     -6.2395487600     0.0883052600
 H         0.3801012175     -6.2578521395     0.1578019685
 O         6.0772304353      2.5365114411    -6.2006663338
 H         5.9355434137      1.7018247508    -6.6790118357
 H         6.2862598477      2.2140222807    -5.3027545261
 O        -5.1597166659     -0.6319642569     6.4530201077
 H        -5.6616939213     -0.9101698838     7.2548356416
 H        -5.1343768994     -1.4680905029     5.9442707195
 O        -1.7365542281     -4.0718002804     7.6123933640
 H        -2.1573041602     -4.6394351240     6.9367891287
 H        -1.5228085311     -4.7316171130     8.2934798147
 O        -1.2733956641     -1.4567121508     7.6153347525
 H        -1.9725838911     -1.1002181471     8.1940500738
 H        -1.4535386292     -2.4208823732     7.6315706217
 O         6.9515873979     -2.6669868213     2.6475264524
 H         6.4080409291     -2.0598383202     3.1601396512
 H         7.4974344044     -3.0817923566     3.3495830218
 O        -3.1879798633      6.2779938192    -1.5054962195
 H        -3.4062683739      5.9906411741    -2.4198082942
 H        -2.2444917770      6.0139614174    -1.4702723999
 O        -0.5340030872      0.5599829490    -8.1097723113
 H        -0.4898980649      1.3353432816    -7.5292328954
 H        -1.4412186494      0.2505963152    -7.9285188153
 O        -3.8000085121     -5.4761888376     6.1307469616
 H        -3.4830538546     -5.9060016233     5.3219490328
 H        -3.9502506513     -6.2517798662     6.7094132310
 O        -3.4122710659     -3.5699199344     0.1035548646
 H        -2.9782662944     -3.3754616770     0.9405267948
 H        -4.3303508799     -3.7869362868     0.3961998755
 O         9.4052272149     -3.2480924738    -0.4866837493
 H         8.4348585851     -3.1932030925    -0.3238800378
 H         9.5379451974     -2.4085987560    -0.9885623462
 O        -3.4763318024      1.3989268462     5.4226040115
 H        -3.8946342555      0.6873497895     5.9521512557
 H        -4.1539706478      1.5280580938     4.7392204646
 O         7.9719578902      4.0947230488     1.9479308646
 H         8.4871769058      4.5401787213     2.6584978304
 H         8.5690873694      3.3794083822     1.6959863744
 O        -6.7696262860      0.5394568915    -4.3473199399
 H        -6.7153411857     -0.4414864346    -4.3103719618
 H        -6.8759097682      0.7278215080    -3.3983187323
 O        -5.2310609848      4.3770764389    -8.0047023670
 H        -6.1257490034      4.5711976291    -8.3321990106
 H        -4.8635201301      3.7838701666    -8.6817277839
 O         5.7937432173      0.0722374354     9.0966146142
 H         5.2970839114     -0.3540142159     8.3731189535
 H         5.0715297403      0.6075495204     9.4959688943
 O         1.4470056822      1.3501464162    -9.8353284094
 H         0.8543883018      1.4816882975   -10.6030753953
 H         0.8053568291      1.0930156538    -9.1468784901
 O         6.3606295182      1.9016214433    -3.6110787598
 H         5.4792062963      1.8541996520    -3.1942153050
 H         6.4602029394      1.0144413923    -4.0009299910
 O        -3.2643208802      4.2076515341     5.3609055032
 H        -2.8632030092      3.3902348295     5.0256159350
 H        -3.5799264874      3.9404920387     6.2422291900
 O         2.9612132941     -7.5664912425     0.5117503206
 H         3.9109496903     -7.5908754110     0.7262620043
 H         2.6609416785     -8.3261291043     1.0591632686
 O         5.5481974528     -8.0026149975     1.1232031459
 H         5.4491212458     -8.5386339185     1.9202108185
 H         6.5013379938     -8.1308626408     0.9189782342
 O         3.9106621405      6.0320632237     0.7605089291
 H         4.1678888064      5.5014246382     1.5455746367
 H         3.5903945130      6.8445588341     1.2094600869
 O        -5.4001379034      0.3359957005    -9.4067019021
 H        -6.1259167484      0.6755075065    -8.8365695879
 H        -5.0200442467      1.1645759600    -9.7565053621
 O         5.8861648964      0.0390917384    -7.7179449336
 H         5.0550438078      0.1731643772    -8.2244776420
 H         5.7816719410     -0.8649257136    -7.4128306877
 O         5.4877083426      2.9478496061     9.1569145631
 H         4.8587114947      3.0856852241     8.4184203873
 H         6.0751666826      2.2767028332     8.7672408102
 O        -2.9801659304      4.0844192481     0.6877033528
 H        -3.4162187103      3.7946928729    -0.1404452361
 H        -3.0453703203      5.0576517285     0.5912636252
 O         3.1462712106     -1.0141159491    -1.2295744018
 H         2.9440072438     -1.9078728019    -1.5673063332
 H         3.6550367916     -1.2398895985    -0.4257829462
 O         0.5686759519      8.5366664299    -4.1465503635
 H         1.3257805785      9.0628556897    -4.4592066015
 H         0.3750385217      8.9991441556    -3.3052195056
 O        -5.4896204386     -4.3088329054    -6.1555610905
 H        -5.3965168650     -4.7137027341    -7.0495786236
 H        -4.5534930461     -4.2105459309    -5.8773883794
 O         4.7171913086     -5.4381275804    -0.7085086647
 H         5.1385168154     -5.4069068381     0.1831568572
 H         5.1486335203     -6.2329331187    -1.1012604637
 O         5.1832851342      3.3725197821    -0.3723553543
 H         5.4848707294      2.5004377534    -0.1094234031
 H         4.2828922288      3.3921143294     0.0131804439
 O         1.4136344441     -8.1988527746     4.5313253099
 H         2.1198950162     -7.9937391131     5.1780734009
 H         1.6399421392     -9.1311603069     4.3324371213
 O        -1.6601519763      4.1688207922   -10.1416261876
 H        -1.7398611680      5.0996348717    -9.8626405882
 H        -1.3958270642      3.7252704103    -9.3096164165
 O         3.4893973579      0.9920329166    -3.0781661756
 H         3.4341983489      0.3536492643    -2.3470961463
 H         3.8969057465      0.4360349639    -3.7574502929
 O        -3.0193114177      8.9085308343    -2.3128860767
 H        -3.1375854191      8.0315894519    -1.9026621419
 H        -3.8178706615      8.9250724982    -2.8876554069
 O        -8.4165809153      2.7371614042    -4.9933217691
 H        -7.9688976160      1.8639974841    -4.9583861748
 H        -8.9487115402      2.6308763915    -5.7962488025
 O         1.7481688478     -3.0855990482    -4.1371270935
 H         2.4731270176     -3.1469446945    -3.4788587854
 H         2.0279301537     -3.7686315392    -4.7803064031
 O         1.4942701606      5.8562095555    -3.8111239792
 H         2.1925961145      5.9091059210    -4.5015774416
 H         1.0420421617      6.7207181446    -3.9758923572
 O        -1.0063363056     -7.2042166668     0.7400803043
 H        -1.1024779740     -7.9895688535     0.1564753355
 H        -1.8048136126     -6.6960257920     0.4773905238
 O        -2.6717040941     -2.9528505321    -8.5578160686
 H        -2.8796650862     -2.0946851309    -8.1284911232
 H        -2.3399365770     -2.6781413467    -9.4391629834
 O         7.8018079836      1.1792233372     4.3188937961
 H         8.1906242534      0.5444132881     3.6628937012
 H         6.9305996917      1.3787494521     3.8988637025
 O        -4.6355954264     -6.1461011133    -3.1525632708
 H        -5.4089637241     -5.7889274102    -3.6232927157
 H        -4.7495949137     -7.1120077527    -3.2909954828
 O         2.1188227543     -2.5638018107     4.4552206351
 H         1.1434109521     -2.4866788097     4.5422021968
 H         2.3816257687     -1.6741134958     4.7311444265
 O         1.1099435212     -6.8928163054    -4.0016879801
 H         1.4405897587     -6.3542507335    -4.7484382592
 H         1.9129597485     -6.9255975166    -3.4502812314
 O        -7.8705023134      1.6065365891    -1.9544441464
 H        -8.5899129791      1.5795113664    -2.5986308498
 H        -7.8970872657      2.5534194821    -1.7003627358
 O        -5.6744472415      4.0940167695     2.3823332212
 H        -5.7491958863      4.3453952374     1.4345701256
 H        -4.9289130588      4.6888968464     2.6384682863
 O        -0.4460745086      7.7223681449    -6.6685937079
 H        -0.2632514088      8.1272905341    -5.7862729225
 H         0.1116738405      8.2426455206    -7.2842816504
 O         2.6112929587      3.3084431887     0.9871786057
 H         1.7651776959      3.1939805409     1.4607744738
 H         3.1506258966      3.7527128027     1.6696518683
 O         6.9095818082      6.3880277877     0.7305364766
 H         6.3081881764      5.8942864537     0.1418916353
 H         7.4024116852      5.6427921762     1.1531437311
 O        -4.1852002845     -8.2305009168     1.2291684625
 H        -4.0888695868     -7.5139071059     0.5718148369
 H        -4.6828583047     -8.8755407094     0.6883087278
 O        -0.7230382726      0.9517661582     4.5981098155
 H        -1.6743625286      1.1155574191     4.7012103215
 H        -0.3278874412      1.7515902171     4.9982945093
 O         6.1289519703     -4.6223826947     5.7748567326
 H         5.6587476128     -5.0580149416     5.0244259673
 H         6.8068770884     -4.1083440425     5.2865060386
 O        -1.1294617447      3.7561307027    -7.4864265818
 H        -0.2871026254      4.2196266497    -7.2916374118
 H        -1.1526929712      3.0741029209    -6.7822830275
 O        -2.6533862422     -8.6645033722     3.3778117310
 H        -3.4058916716     -8.3561818827     2.8376546727
 H        -2.3247050269     -7.8015725997     3.7119137794
 O        -0.7053118991     -4.1005075547    -7.0135355708
 H        -1.4018058394     -3.7827525113    -7.6133401061
 H        -1.2122933621     -4.2916601181    -6.1988082464
 O        -5.0934003631     -3.3657043327     5.5180860345
 H        -4.5523005293     -4.1536298554     5.7037907837
 H        -4.6911677162     -3.0497594982     4.6847711549
 O        -5.9728195755      1.8483817531     3.7584553915
 H        -5.8796705446      2.7107880640     3.2917022538
 H        -6.9227779036      1.6593079041     3.5888751597
 O         4.7722400507     -6.8167760643    -4.5145206025
 H         4.3120001982     -6.9494841547    -3.6652285178
 H         5.6989324225     -6.8752301795    -4.2081963661
 O        -3.7622896032     -2.3910896888    -2.4752527210
 H        -3.3962149375     -2.9555416741    -1.7895659263
 H        -3.0316639829     -2.3601863762    -3.1328275727
 O         4.0993658868     -1.1472481089     7.2432272514
 H         3.1305263998     -1.2630477317     7.3591318008
 H         4.4312181925     -1.9452465608     7.6731758973
 O        -0.4648655579     -3.1254607391    -2.5768870441
 H         0.3918354513     -3.1412472046    -3.0529755286
 H        -0.8542020074     -3.9911083958    -2.8217875354
 O         6.9193527639     -4.3990658688    -3.0387106631
 H         6.7976337907     -5.2766755037    -2.6073459064
 H         7.6985242837     -4.5620611781    -3.6057661510
 O         5.8702443576      0.7925994214     0.4078707344
 H         5.3341785203      0.0278015365     0.1094140703
 H         6.6941946439      0.6399129676    -0.1062300795
 O         4.7697221237      4.9862880562     5.1413827069
 H         4.6612889761      4.8006355857     6.0939301117
 H         5.4249216351      5.7205788029     5.1525283483
 O         3.3110985172     -2.0715231313    -6.8922582373
 H         3.2077676998     -1.3410068117    -6.2430004128
 H         2.5120266209     -1.9746475158    -7.4425061925
 O         4.1903299026      4.4051301456    -5.0729104122
 H         4.5901840938      3.7420328308    -5.6630506556
 H         4.2043646333      5.2024638789    -5.6359399797
 O        -1.3798657530     -5.8117122582    -2.9746360021
 H        -1.7566418696     -6.6357284815    -2.6070778992
 H        -0.4146393091     -5.9945743504    -2.9521241622
 O        -4.9516279791     -5.3985996470     2.7236496350
 H        -5.0029969985     -4.4295674318     2.8242243075
 H        -5.8573892101     -5.5805463416     2.4040920182
 O        -5.6584162070      5.2992264820    -0.2151569966
 H        -6.1148583800      4.8685855543    -0.9468873376
 H        -4.8943082415      5.6987683089    -0.7018410840
 O         6.6417734738     -2.8118509381    -0.5892342272
 H         6.6876603602     -3.2555658536    -1.4604436449
 H         6.0310491237     -3.3848176408    -0.0891233340
 O        -0.9764833620      4.4812303358     3.1196017017
 H        -0.2619455082      4.4319983126     2.4488126722
 H        -1.0877850026      5.4544180442     3.1547704501
 O         2.3380970190      0.4717791356    -5.8829431842
 H         2.0884524332      1.1461204100    -5.2132208829
 H         2.5343759674      1.0673265257    -6.6461485884
 O         2.6690383395      2.5283270596    -7.7296659197
 H         2.1314522736      2.2969347182    -8.5150721840
 H         2.2679674311      3.3997916874    -7.5333973043
 O        -2.0408722717     -3.1550259663     2.3888986511
 H        -1.2771020056     -3.2853729047     1.7922214114
 H        -1.6444793661     -2.5608932092     3.0696369328
 O         1.5513091124      2.4942439184    -4.1087142100
 H         2.3677272060      2.1974640477    -3.6449121856
 H         1.5945259140      3.4668556595    -3.9731353446
 O         1.5661645700      6.1508121119    -0.8172095511
 H         2.2599632677      5.7676833052    -0.2519922940
 H         2.0467022458      6.2695594855    -1.6652657714
 O         1.4222726222     -1.8459121467     8.0026936933
 H         1.3955693022     -1.2031358542     8.7430301976
 H         0.5495154946     -1.6791072844     7.5944812978
 O         0.1447441182     -1.1397749086    -5.0682111397
 H         0.8235700074     -0.5798321347    -5.4905716792
 H         0.6977041744     -1.9179422109    -4.8416340618
 O         2.7278317884      7.9459576744     2.1495992058
 H         2.9801573274      8.3966777761     2.9845215806
 H         2.0430295899      8.5470706907     1.7884234136
 O        -6.9438624305      4.1091920847    -2.4865533533
 H        -6.8859811241      4.0796105712    -3.4683368787
 H        -7.5245534981      4.9005525222    -2.3955919155
 O        -3.7205389393     -0.6574683478     9.3207493440
 H        -4.6879044391     -0.5466476142     9.2400469904
 H        -3.4026240414      0.2430180595     9.1207760746
 O        -3.0911570351     -0.3522330698     1.9499786637
 H        -2.7372454271      0.4877808949     2.3138975178
 H        -4.0154133637     -0.0957017132     1.7407360246
 O         3.1100205041      6.7436807737    -6.0830208704
 H         3.7604095434      7.1917411600    -5.4981824295
 H         3.0715342625      7.3647212451    -6.8361039216
 O        -3.8545096289      4.6783074211    -3.7305760849
 H        -3.2688506091      5.0341726553    -4.4352691002
 H        -4.6971663965      4.5767246479    -4.2289826026
 O         4.5708024862      8.1499522004    -1.9215354578
 H         4.4801225857      7.1865895026    -1.7674997301
 H         4.6273666646      8.5164468067    -1.0180422900
 O         5.5749792722     -8.3947784472     4.1490325674
 H         6.0843150588     -8.3498560667     4.9749087769
 H         5.1298249257     -7.5236295866     4.1458487685
 O         2.6877647318     -5.1187327446    -5.5068335250
 H         2.9209074771     -5.4158780153    -6.4126122132
 H         3.5715425063     -5.1360678121    -5.0784440496
 O        -7.5669668592     -3.7913673982     4.4311149060
 H        -6.7034123398     -3.6901321362     4.8480213817
 H        -7.4170187723     -4.5110399499     3.8101767407
 O        -8.3311542274      0.9235165415     2.6866848905
 H        -8.3231220755      0.7565445097     1.7245540853
 H        -9.2251516025      0.6616485754     2.9212537963
 O        -2.5682247426     -1.9438756195    -4.8088632308
 H        -1.6353919450     -1.6987596592    -4.9738417064
 H        -2.9774148296     -1.0588556399    -4.9618613370
 O        -0.8689810780      5.1633968973    -1.7426220254
 H        -0.0451346940      5.5866783589    -1.4587525591
 H        -0.7047665520      5.0549737304    -2.6914776660
 O         8.7315647575     -0.4553569675     2.0440926770
 H         8.1623972276     -1.2131048925     1.7905601484
 H         9.5836798332     -0.9060121645     2.1772401162
 O         7.8660754622      1.2607562600    -1.5350075294
 H         7.2708806986      1.7297844012    -2.1381240558
 H         8.6734948900      1.1638593989    -2.0807952341
 O         4.3420956687      1.9400040782     6.7451323297
 H         3.7074458607      1.1979431368     6.7384091148
 H         3.9556229971      2.5147273132     6.0518572419
 O        -0.1418039764      3.4632387973     0.5870289739
 H         0.0329436309      3.7648563638    -0.3284228208
 H        -1.0778974857      3.6950068198     0.7083472745
 O         7.6953971625      4.6798250082    -2.1336102784
 H         8.2637108828      4.7760868825    -1.3354273988
 H         6.9285763972      4.2570484060    -1.7218394665
 O        -2.4155222760      5.9335421619    -5.8450494024
 H        -1.7842313276      6.5633107522    -6.2565514338
 H        -2.5582785190      5.2922960304    -6.5732850061
 O        -5.9999374535      4.1294569513    -5.2602956533
 H        -5.5170787434      4.2039484032    -6.1120365668
 H        -6.9240779610      3.9804301539    -5.5594263310
 O        -7.0814119807      0.9588271993    -7.2495677051
 H        -7.7252397580      0.2474798586    -7.0291198807
 H        -6.6261548538      1.0951751124    -6.3931865035
 O        -0.6113110896      7.6696018300     0.2407313175
 H        -0.0225143220      6.9497787251    -0.0626884332
 H        -0.6277037424      8.2708913617    -0.5386323509
 O        -3.1966862742      0.0158060928    -7.6935866256
 H        -4.0952934010      0.1489981364    -8.0615469596
 H        -3.3931786396      0.0633393374    -6.7382729256