10
charge = -1 c15_02_qmmm_c.xyz
 C        -1.5296940000     -0.8365660000     0.1143590000
 C        -0.1877040000     -0.0797660000     0.0055090000
 O         0.8393560000     -0.8079260000     0.0482190000
 O        -0.2559540000      1.1714940000    -0.1074510000
 H        -1.5755340000     -1.6084760000    -0.6540010000
 H        -2.3773140000     -0.1619360000     0.0134090000
 H        -1.5787740000     -1.3424560000     1.0792490000
 H         1.6994760000      1.7548140000    -0.2037310000
 O         2.6115060000      1.4222640000    -0.1928910000
 H         2.3546360000      0.4885540000    -0.1026710000