122
charge = 1 c15_06_qmmm_aw_04.00.xyz
 C         1.2500192857      0.0012450000     1.5902764286
 N        -0.2335707143      0.1282150000     1.4713764286
 H        -0.7072607143     -0.4870550000     2.1304064286
 H        -0.5409807143      1.0777550000     1.6737164286
 H        -0.5476807143     -0.1249850000     0.4977164286
 H         1.5219692857     -1.0221650000     1.3614064286
 H         1.5536592857      0.2583050000     2.5981364286
 H         1.7076092857      0.6751850000     0.8758664286
 O        -1.5769657474     -2.9252884905     1.3169936006
 H        -1.3765655421     -3.0382494566     2.2536030663
 H        -1.3466702473     -3.8063574286     0.9505558751
 O        -0.4496476082      2.0099678921     5.0851519947
 H        -1.1307895158      2.2685099688     4.4233938424
 H        -0.9644874025      1.5044882177     5.7381535920
 O         4.1997536480     -1.6504603404     4.6537761444
 H         3.7463332770     -1.3703720185     5.4765276086
 H         4.7587999450     -0.8644369796     4.4597144149
 O         4.0284862817      3.6175783562     3.6235193901
 H         4.0626767103      4.1674015281     2.8116214629
 H         3.0796903112      3.7278558437     3.8572708666
 O        -0.5530376883     -5.0958585047    -0.2923504012
 H        -0.8469513591     -4.8019363296    -1.1734466656
 H        -0.6148364905     -6.0647895500    -0.3768912289
 O         6.2081213029      1.2954117332     1.6176855248
 H         6.7484686449      0.6351620975     1.1331911904
 H         5.3781540245      1.2892920952     1.0953239237
 O        -2.1714527655      3.2850842099    -3.8512903860
 H        -1.7688330177      2.7637136499    -4.5774897898
 H        -2.0521875646      4.1923576389    -4.2164658112
 O        -3.9844397772     -0.6273246952    -1.6635824711
 H        -3.9407223069     -1.5840750973    -1.8164097883
 H        -3.7427339891     -0.5803049239    -0.7156255804
 O         3.0404084363      2.3369251864    -3.0026340660
 H         3.3472820912      1.9112134225    -3.8288918252
 H         2.1581979173      2.6684838656    -3.2801183008
 O         2.7863403230      0.5598552297    -5.1659639199
 H         1.8899603452      0.3765604206    -5.4948296884
 H         3.2541932573      0.8003605037    -5.9993690489
 O         2.1469051005     -4.6731086421    -0.3028940230
 H         2.2731622316     -5.0166824928    -1.2141207417
 H         1.1734146461     -4.5787771897    -0.2551553671
 O         0.0334639758     -2.6239524070    -5.0156587019
 H         0.9888860283     -2.8170325358    -4.9260348879
 H        -0.2006113243     -3.0974016421    -5.8313907374
 O         0.3318860418     -0.0868573675    -6.1178689636
 H         0.1118110081     -0.9310348572    -5.6738307259
 H        -0.5040421475      0.4133867281    -6.0354489850
 O         1.4709186791      3.8370319789     4.4063171672
 H         0.8180561042      3.1544074574     4.6546525141
 H         1.4095330209      4.4505100108     5.1730657697
 O         3.1077667451     -0.9335196774    -2.6269264750
 H         2.9460634368     -0.3640266125    -3.4116080009
 H         3.6707290526     -1.6366969518    -2.9863355029
 O         1.5558724351      0.1029081415     5.0657286391
 H         0.8208545188      0.7461552951     5.1301189458
 H         1.0926480005     -0.7223081927     5.3069965073
 O        -0.9124650578     -3.9557638330    -2.8468102785
 H        -0.8013463499     -3.4510122855    -3.6826408293
 H        -0.7964119786     -4.8599710030    -3.2121789884
 O         2.3985774581     -3.1194225444     3.3554903830
 H         2.6800316332     -2.9007398788     2.4392815706
 H         2.9895083060     -2.5102847348     3.8444194845
 O         2.3893613981      3.2602162305     0.0406514227
 H         1.8177339216      3.5509383498     0.7813359581
 H         1.8584086612      3.5625830360    -0.7245644666
 O        -5.5379531439      1.1692534241    -2.8888196160
 H        -4.9022681126      0.6045273598    -2.4070650387
 H        -6.3565739020      0.9701243956    -2.3882877238
 O        -3.0034645762      2.8720234958    -1.3633971019
 H        -2.7123240389      3.0382915892    -2.2778553997
 H        -2.2141229539      3.1459116140    -0.8530844419
 O        -3.5039467479     -1.1250875887     1.0565671060
 H        -3.9435219876     -1.1664110828     1.9359778401
 H        -2.8387579787     -1.8434359625     1.1439818516
 O        -2.8386447574      0.3976252840    -6.7560171241
 H        -3.4361668314      1.1626069582    -6.7047386042
 H        -3.1537077217     -0.1523442604    -6.0045980714
 O         2.7196752730      2.1845135468     6.5398526798
 H         2.4205710075      1.3676555119     6.1048115526
 H         1.9933864030      2.3489373014     7.1779438105
 O         4.2485991435      0.4173679242    -0.6672019904
 H         4.2088477304      1.2849929378    -1.0983580101
 H         3.7759454084     -0.1564357220    -1.3101390111
 O        -1.0848368358      4.1678793019     0.1855945543
 H        -0.4477329053      4.4805393791     0.8699635632
 H        -0.5949679973      4.2454473467    -0.6572734987
 O         3.6057574960     -2.8170530008     0.9585085972
 H         3.2734013576     -3.5466413210     0.4171993707
 H         4.2633682250     -2.4009520145     0.3793258492
 O         1.0231077093      3.4028671133    -4.3449729264
 H         0.5495464799      2.8636496067    -5.0025577654
 H         1.5732952745      3.9743812201    -4.9032391027
 O        -3.5540188559      1.6854603052     1.1685831428
 H        -3.4875673080      2.1341847211     0.3030619475
 H        -3.7022393550      0.7712142617     0.8834312940
 O         5.1755514340      1.1533459716     4.0504879766
 H         5.5286720570      1.3785747135     3.1592748226
 H         4.4190584472      1.7665548809     4.1341515309
 O        -0.1735263751     -3.7061738013     3.7752387528
 H         0.7088028447     -3.5392057941     3.3831585481
 H        -0.1013752857     -3.2446190963     4.6380264615
 O         0.7093175054      4.5465616047    -1.6894925084
 H         0.7237297073      4.4366876988    -2.6627766223
 H         1.2204992147      5.3794622586    -1.5980091213
 O         4.7451572650      3.1230540317    -1.1273610838
 H         3.8978267458      3.2329453341    -0.6579006890
 H         4.4379690684      2.7441364325    -1.9826307545
 O        -2.1617597219      2.8475411786     3.2361381485
 H        -2.6250857422      2.4290854764     2.4847726974
 H        -2.1800593721      3.7834483402     2.9691515449
 O        -2.7844260577     -1.0602673617    -4.3714179047
 H        -3.0635713512     -0.6011574228    -3.5676899133
 H        -3.3285115864     -1.8741982516    -4.3383078008
 O        -3.3137087152     -3.4929623369    -1.5099221491
 H        -2.5351163894     -3.6578982039    -2.0879801364
 H        -3.8441483825     -4.3105179969    -1.6346408379
 O        -1.0169091042      2.3023834047    -6.1662009257
 H        -1.7199831539      1.6893165114    -6.4846317810
 H        -0.5586222727      2.4835593224    -7.0131236221
 O        -2.2078074596     -0.7623462555     4.2495797987
 H        -1.7778443196     -1.3186233638     4.9320537215
 H        -3.0978670079     -1.1838467372     4.2173633249