17
charge = 1 c15_13_qmmm_c.xyz
 C         1.6959494118     -0.0472776471    -2.2067505882
 C         0.8610694118     -0.6862876471    -1.3284205882
 N         0.6357194118      0.1650323529    -0.2784905882
 C         1.3045794118      1.2961623529    -0.4893705882
 N         1.9526994118      1.1810523529    -1.6570805882
 H         0.4246394118     -1.6664276471    -1.3791805882
 H         0.0131494118     -0.0459676471     0.6049494118
 H         1.3279994118      2.1546223529     0.1563394118
 H         2.1127494118     -0.3597676471    -3.1459105882
 H         2.5402194118      1.8961123529    -2.0602305882
 N        -0.9433805882     -0.3825176471     1.8378094118
 H        -0.6191505882     -1.2000276471     2.3443194118
 C        -2.3259805882     -0.6219776471     1.3710294118
 H        -2.6831105882      0.2604923529     0.8478394118
 H        -2.3271205882     -1.4546176471     0.6732294118
 H        -3.0147105882     -0.8493576471     2.1813694118
 H        -0.9553205882      0.3607523529     2.5285494118