264
charge = 0 c15_06_qmmm_bw_06.00.xyz
 O        -0.8445207143     -0.5625050000    -1.0569735714
 C        -0.5050307143      0.1839850000    -2.2419935714
 H        -1.4348207143     -1.2774950000    -1.3137235714
 H        -1.3903507143      0.6306150000    -2.6856235714
 H         0.1748292857      0.9717850000    -1.9355135714
 H        -0.0038707143     -0.4528850000    -2.9650735714
 O        -6.3088865896      0.0368607296    -5.2350892099
 H        -6.8174580315      0.8170243279    -5.5070002745
 H        -6.0125347966      0.2712758874    -4.3274710412
 O        -1.5769657474     -2.9252884905     1.3169936006
 H        -1.3765655421     -3.0382494566     2.2536030663
 H        -1.3466702473     -3.8063574286     0.9505558751
 O        -0.4496476082      2.0099678921     5.0851519947
 H        -1.1307895158      2.2685099688     4.4233938424
 H        -0.9644874025      1.5044882177     5.7381535920
 O         4.1997536480     -1.6504603404     4.6537761444
 H         3.7463332770     -1.3703720185     5.4765276086
 H         4.7587999450     -0.8644369796     4.4597144149
 O         4.0284862817      3.6175783562     3.6235193901
 H         4.0626767103      4.1674015281     2.8116214629
 H         3.0796903112      3.7278558437     3.8572708666
 O        -0.5530376883     -5.0958585047    -0.2923504012
 H        -0.8469513591     -4.8019363296    -1.1734466656
 H        -0.6148364905     -6.0647895500    -0.3768912289
 O         0.6227263104      1.9940081726     8.1830728784
 H         0.4718178238      1.8343541873     9.1398693242
 H        -0.1216757351      1.4828881587     7.8097962045
 O         2.3459962914      4.1276825186    -6.4316469565
 H         2.7843061918      3.8052508669    -7.2552312018
 H         2.4416241233      5.1017612390    -6.4972729067
 O        -4.9825466006     -5.8927752741    -1.7491415283
 H        -5.9030014062     -5.7204038370    -1.4731170121
 H        -4.9520214228     -6.8679206002    -1.7888159569
 O         6.2081213029      1.2954117332     1.6176855248
 H         6.7484686449      0.6351620975     1.1331911904
 H         5.3781540245      1.2892920952     1.0953239237
 O        -0.4458107415     -0.1067214008    -9.0221715914
 H        -0.4698556713      0.8319931109    -8.7911040052
 H         0.4125616701     -0.3720739383    -8.6074681686
 O        -2.1714527655      3.2850842099    -3.8512903860
 H        -1.7688330177      2.7637136499    -4.5774897898
 H        -2.0521875646      4.1923576389    -4.2164658112
 O         1.4884740782      6.3909587456    -4.0873489212
 H         1.4295894936      7.3020953320    -3.7350226618
 H         2.4489344767      6.3090722748    -4.2170183866
 O         5.2461234863     -4.9789383079    -0.7635136761
 H         6.1671055066     -4.8416994487    -1.0607483599
 H         4.8710103645     -4.0858453505    -0.8906610031
 O        -3.1197636849     -5.6273913421    -3.8245727463
 H        -3.8580588708     -5.9078875933    -3.2400691118
 H        -2.6597395112     -6.4837732576    -3.9218999561
 O        -0.9837300932     -7.4981595664    -1.2183986011
 H        -0.8479721197     -6.9813447670    -2.0491246087
 H        -1.7921200662     -7.9933436791    -1.4685832986
 O         2.4188888211     -5.6226864279    -2.7745653770
 H         3.3527053787     -5.8048065800    -2.5153703782
 H         2.5265366536     -4.8481125778    -3.3722879146
 O         5.6941089421     -3.7850017261     4.8577767480
 H         5.9053794843     -3.9420412707     3.9235858604
 H         5.0791884093     -3.0221560177     4.7972558900
 O         2.3750696410     -5.4132595363     4.6032234019
 H         2.4477338484     -4.4645970404     4.3509034096
 H         2.4993243428     -5.8260070124     3.7209488558
 O        -1.7032674791      5.7351044673     4.3323804355
 H        -0.8816041620      5.5900904935     4.8592272976
 H        -1.4771521754      6.5981729507     3.9178062398
 O         0.2960573335     -2.3831753769     6.0175920107
 H         1.1147508997     -2.1130629238     6.4890442122
 H        -0.0748770816     -3.0171808287     6.6686672699
 O         4.9801920292     -2.1966362060    -4.4462804571
 H         5.4774642627     -1.3509598016    -4.4070866101
 H         4.9816481088     -2.3174200147    -5.4186785126
 O        -2.1417760119     -5.5159172075     3.0533582491
 H        -2.1762423292     -5.8420801020     3.9765161364
 H        -1.5881614578     -4.7285174307     3.1318039798
 O        -4.5864159338      2.4495281601    -5.8198926574
 H        -5.3505266179      2.5119561231    -5.2060903804
 H        -3.9761066077      3.0958833296    -5.4144370653
 O         7.4840492286      3.7977560149     1.6713315651
 H         8.3083005608      3.4281652300     2.0431249923
 H         6.9202488439      2.9961342659     1.6001551553
 O        -3.9844397772     -0.6273246952    -1.6635824711
 H        -3.9407223069     -1.5840750973    -1.8164097883
 H        -3.7427339891     -0.5803049239    -0.7156255804
 O         5.2851216783      2.1735570330     7.1609621553
 H         4.3352085470      2.0585547534     6.9370648463
 H         5.6048250053      2.7498599452     6.4367929315
 O         3.0404084363      2.3369251864    -3.0026340660
 H         3.3472820912      1.9112134225    -3.8288918252
 H         2.1581979173      2.6684838656    -3.2801183008
 O         2.6334221430     -1.7768801465     7.3863107285
 H         2.4624102647     -1.0400520706     8.0109856912
 H         2.9183628265     -2.4653809601     8.0024853193
 O         7.1633674712     -0.3156127782     5.5697367998
 H         7.6947520146     -0.4552708359     4.7562061863
 H         6.4698751765      0.2809538903     5.2196135134
 O         2.7863403230      0.5598552297    -5.1659639199
 H         1.8899603452      0.3765604206    -5.4948296884
 H         3.2541932573      0.8003605037    -5.9993690489
 O         2.1469051005     -4.6731086421    -0.3028940230
 H         2.2731622316     -5.0166824928    -1.2141207417
 H         1.1734146461     -4.5787771897    -0.2551553671
 O        -2.8900676665     -1.9512834970     7.3730990151
 H        -2.8365455347     -1.8379253182     8.3461586264
 H        -2.9934466562     -2.9191602952     7.2749617997
 O        -4.6937849589      0.1101737830     6.9331513129
 H        -4.1891620219     -0.7314747829     6.9803435016
 H        -5.5560912773     -0.1870717503     7.2548819436
 O        -3.9307049890      2.2863033042     5.5324383024
 H        -4.1808472867      1.4051012776     5.8675901701
 H        -3.5848652955      2.0884499271     4.6484905995
 O         0.0334639758     -2.6239524070    -5.0156587019
 H         0.9888860283     -2.8170325358    -4.9260348879
 H        -0.2006113243     -3.0974016421    -5.8313907374
 O         0.3318860418     -0.0868573675    -6.1178689636
 H         0.1118110081     -0.9310348572    -5.6738307259
 H        -0.5040421475      0.4133867281    -6.0354489850
 O         1.4709186791      3.8370319789     4.4063171672
 H         0.8180561042      3.1544074574     4.6546525141
 H         1.4095330209      4.4505100108     5.1730657697
 O         3.5222610226      4.8116023764     6.7923676303
 H         3.7100918426      4.5014663209     7.7006741671
 H         3.1127836713      4.0358427404     6.4010515943
 O         7.3578996528      1.6189261507    -1.7661945790
 H         6.8939124859      1.1348024376    -2.4797757549
 H         6.6174784114      2.0318243740    -1.2722230423
 O         3.1077667451     -0.9335196774    -2.6269264750
 H         2.9460634368     -0.3640266125    -3.4116080009
 H         3.6707290526     -1.6366969518    -2.9863355029
 O        -3.3632095643      5.1170298671     1.7023142687
 H        -2.8804663427      4.9540971523     0.8638684124
 H        -3.0100262527      5.9893172400     1.9687660157
 O         1.0985440055      4.7425459511     1.8513355400
 H         1.3548526384      4.4799425090     2.7665023287
 H         1.2868086800      5.7026695948     1.8740613955
 O        -5.3398306226      4.2881400549    -1.6143521406
 H        -4.5613853617      3.6880885026    -1.5829156235
 H        -5.3137785940      4.5752827283    -2.5301348587
 O         1.5558724351      0.1029081415     5.0657286391
 H         0.8208545188      0.7461552951     5.1301189458
 H         1.0926480005     -0.7223081927     5.3069965073
 O        -0.9124650578     -3.9557638330    -2.8468102785
 H        -0.8013463499     -3.4510122855    -3.6826408293
 H        -0.7964119786     -4.8599710030    -3.2121789884
 O        -1.5112569396      0.3850108991     7.1765779891
 H        -1.7315830503     -0.5637038202     7.2893173661
 H        -2.2150769249      0.7704631640     7.7429048508
 O        -6.3758135487     -3.2339089895    -2.5352426253
 H        -6.6836962801     -4.1226286244    -2.2776387797
 H        -6.7201468988     -2.7224680606    -1.7682746519
 O         2.3985774581     -3.1194225444     3.3554903830
 H         2.6800316332     -2.9007398788     2.4392815706
 H         2.9895083060     -2.5102847348     3.8444194845
 O         2.3893613981      3.2602162305     0.0406514227
 H         1.8177339216      3.5509383498     0.7813359581
 H         1.8584086612      3.5625830360    -0.7245644666
 O        -5.5379531439      1.1692534241    -2.8888196160
 H        -4.9022681126      0.6045273598    -2.4070650387
 H        -6.3565739020      0.9701243956    -2.3882877238
 O        -1.0548976025      5.8255747979    -4.5439917799
 H        -1.3939441154      6.1698836038    -3.6977016567
 H        -0.1202542082      5.6998531028    -4.3310348657
 O        -3.0034645762      2.8720234958    -1.3633971019
 H        -2.7123240389      3.0382915892    -2.2778553997
 H        -2.2141229539      3.1459116140    -0.8530844419
 O        -3.5039467479     -1.1250875887     1.0565671060
 H        -3.9435219876     -1.1664110828     1.9359778401
 H        -2.8387579787     -1.8434359625     1.1439818516
 O        -5.9007868424      4.6983516672     1.0458242477
 H        -4.9586565645      4.8450104761     1.2547830944
 H        -5.8422704829      4.4003576140     0.1124555942
 O        -2.8386447574      0.3976252840    -6.7560171241
 H        -3.4361668314      1.1626069582    -6.7047386042
 H        -3.1537077217     -0.1523442604    -6.0045980714
 O         2.5799723553     -3.8058001654    -5.0573230640
 H         2.6872931114     -4.4323861967    -5.7973707476
 H         3.4986750786     -3.4680990580    -4.9954546403
 O        -0.1581656236     -6.4947558769    -3.6221168974
 H        -0.0003283422     -6.9337269018    -4.4744469377
 H         0.7436029753     -6.1976336615    -3.3754690494
 O        -7.7878617133      0.1378220358    -1.2611008745
 H        -7.3470057456     -0.6179842313    -0.8333179205
 H        -7.6361031878      0.8354455508    -0.5865827919
 O         2.7196752730      2.1845135468     6.5398526798
 H         2.4205710075      1.3676555119     6.1048115526
 H         1.9933864030      2.3489373014     7.1779438105
 O         4.2485991435      0.4173679242    -0.6672019904
 H         4.2088477304      1.2849929378    -1.0983580101
 H         3.7759454084     -0.1564357220    -1.3101390111
 O        -1.0848368358      4.1678793019     0.1855945543
 H        -0.4477329053      4.4805393791     0.8699635632
 H        -0.5949679973      4.2454473467    -0.6572734987
 O         3.6057574960     -2.8170530008     0.9585085972
 H         3.2734013576     -3.5466413210     0.4171993707
 H         4.2633682250     -2.4009520145     0.3793258492
 O         3.9375301216      5.5985115784     1.6609866171
 H         4.7998551141      6.0676707766     1.6230749769
 H         3.7563000806      5.4405315142     0.7116764990
 O         1.0231077093      3.4028671133    -4.3449729264
 H         0.5495464799      2.8636496067    -5.0025577654
 H         1.5732952745      3.9743812201    -4.9032391027
 O        -3.5540188559      1.6854603052     1.1685831428
 H        -3.4875673080      2.1341847211     0.3030619475
 H        -3.7022393550      0.7712142617     0.8834312940
 O         5.1755514340      1.1533459716     4.0504879766
 H         5.5286720570      1.3785747135     3.1592748226
 H         4.4190584472      1.7665548809     4.1341515309
 O        -4.3744769704     -5.4737077191     1.6039409341
 H        -3.6057548555     -5.2782087048     2.1909291280
 H        -4.1678261067     -4.9607090171     0.7948902878
 O        -0.1735263751     -3.7061738013     3.7752387528
 H         0.7088028447     -3.5392057941     3.3831585481
 H        -0.1013752857     -3.2446190963     4.6380264615
 O        -6.1850630267     -1.6678085140     0.2385508829
 H        -5.2393911315     -1.9015638096     0.2989037045
 H        -6.4276097616     -1.7691829940     1.1858694105
 O         0.7093175054      4.5465616047    -1.6894925084
 H         0.7237297073      4.4366876988    -2.6627766223
 H         1.2204992147      5.3794622586    -1.5980091213
 O        -4.2261171766     -3.3320923031    -4.4035653618
 H        -5.0716638524     -3.3600296629    -3.9105535823
 H        -3.8701847471     -4.2290587010    -4.2308969968
 O         2.2091841254     -6.3753705393     2.0001044324
 H         2.9340512645     -6.9211601286     1.6370706879
 H         2.1589030022     -5.6597106158     1.3321238924
 O        -1.5098998415      6.8351649966    -2.1776009056
 H        -1.0752254734      6.7840512974    -1.3067389171
 H        -2.4095018206      7.1152708028    -1.8908589023
 O         4.7451572650      3.1230540317    -1.1273610838
 H         3.8978267458      3.2329453341    -0.6579006890
 H         4.4379690684      2.7441364325    -1.9826307545
 O         6.3270279904     -3.8069698804     2.2635894643
 H         6.9756958748     -3.7309022354     1.5307170545
 H         5.5627188325     -3.3613599890     1.8312812136
 O         6.3471203369      4.0346733880     5.2729319172
 H         5.7615376688      3.8510591709     4.5105086346
 H         6.3536823387      5.0202439305     5.2627882347
 O        -3.7844402582     -2.8038503510    -7.1756952452
 H        -3.5349263552     -2.7492362989    -6.2343080110
 H        -3.8161165767     -3.7722031141    -7.3168129433
 O        -2.1617597219      2.8475411786     3.2361381485
 H        -2.6250857422      2.4290854764     2.4847726974
 H        -2.1800593721      3.7834483402     2.9691515449
 O         5.3953297745     -2.0894524927    -0.8291147173
 H         6.2650870457     -2.1054100268    -1.2841988065
 H         5.1883350895     -1.1332802978    -0.7939830785
 O        -2.7844260577     -1.0602673617    -4.3714179047
 H        -3.0635713512     -0.6011574228    -3.5676899133
 H        -3.3285115864     -1.8741982516    -4.3383078008
 O        -3.3137087152     -3.4929623369    -1.5099221491
 H        -2.5351163894     -3.6578982039    -2.0879801364
 H        -3.8441483825     -4.3105179969    -1.6346408379
 O        -1.0169091042      2.3023834047    -6.1662009257
 H        -1.7199831539      1.6893165114    -6.4846317810
 H        -0.5586222727      2.4835593224    -7.0131236221
 O        -2.2078074596     -0.7623462555     4.2495797987
 H        -1.7778443196     -1.3186233638     4.9320537215
 H        -3.0978670079     -1.1838467372     4.2173633249
 O        -0.6425461938     -4.6073630981    -6.8783175944
 H        -1.5905157747     -4.8724837259    -6.8738834165
 H        -0.6775703166     -3.8265817545    -7.4686910761
 O        -4.7986833575     -1.7693961257     3.5176218535
 H        -4.8542161478     -2.7502176110     3.5455078847
 H        -5.5257664510     -1.5464857470     4.1389422485