7
charge = 0 c15_03_qmmm_b.xyz
 H         0.6872814286      1.2201378571    -0.4537421429
 N         1.6539214286      1.5663278571    -0.4956021429
 C         2.5324514286      0.4603378571    -0.1208121429
 H         3.5763214286      0.7849278571    -0.1415721429
 H         2.3266314286      0.0191778571     0.8593578571
 H         2.4175214286     -0.3407721429    -0.8469221429
 H         1.6952614286      2.2618678571     0.2402578571