10
charge = 1 c15_12_qmmm_a.xyz
 C         1.0689057143     -0.6635150000    -2.1694035714
 C         0.2197557143     -1.1016750000    -1.1892735714
 N         0.1251757143     -0.0938650000    -0.2664735714
 C         0.8800257143      0.9361750000    -0.6444635714
 N         1.4585557143      0.5986850000    -1.8018435714
 H        -0.3074842857     -2.0314350000    -1.0870135714
 H        -0.4326342857     -0.0921650000     0.6002964286
 H         1.4137157143     -1.1368750000    -3.0695035714
 H         2.0886057143      1.1942850000    -2.3196935714
 H         0.9998257143      1.8641450000    -0.1163235714