289
charge = 1 c15_10_qmmm_cw_06.00.xyz
 C        -0.8002625000     -1.2952512500    -0.3618975000
 N        -1.4996825000     -2.4289812500    -0.4010575000
 N        -1.4188225000     -0.1213512500    -0.3264175000
 N         0.5267875000     -1.3205212500    -0.3531075000
 H        -2.4197725000     -0.0589512500    -0.3567875000
 H         1.0317675000     -2.1872712500    -0.3734775000
 H         1.0274675000     -0.4392912500    -0.3341875000
 H        -1.0405925000     -3.3209512500    -0.4310175000
 H        -0.8560825000      0.7217287500    -0.3115175000
 H        -2.5032225000     -2.4198112500    -0.3958075000
 O         0.9446575000      1.5358187500    -0.2312075000
 C         1.3636175000      2.2035487500     0.9756425000
 H         1.2636375000      2.0586087500    -0.9741075000
 H         2.4474975000      2.2588487500     1.0340525000
 H         0.9397875000      3.2025687500     1.0353625000
 H         0.9932175000      1.6112587500     1.8055325000
 O         3.1971273346     -0.4269283777    -5.4096816138
 H         3.7266788196      0.1819371213    -5.9720330828
 H         2.9418843329      0.1921781844    -4.6935185467
 O        -1.7770807651      1.3730916501     3.0348619229
 H        -2.5301791678      1.6254546018     3.6150998439
 H        -1.9427139904      1.9107045687     2.2441313476
 O        -1.8549967937     -7.0960518639     2.7765672871
 H        -1.7265696032     -7.6306117402     1.9696733729
 H        -1.2516576246     -7.5600776672     3.3946999992
 O         6.1672922683      1.7739802826    -0.3352163263
 H         7.0529784905      2.1422961759    -0.1240715144
 H         5.7199469469      2.5685554971    -0.6935949677
 O         2.2401080297      3.3772066216     7.2715821478
 H         2.5951930076      2.5592799525     6.8864904040
 H         1.7016178765      3.0523439004     8.0187630894
 O        -1.8549459864      2.1187436394     6.5375140153
 H        -2.6149640125      2.0588380027     5.9215923295
 H        -1.9452622213      3.0624385489     6.7970185381
 O        -2.5872831675      3.1646079400     0.8764286800
 H        -2.5316833109      2.9871433498    -0.0774712673
 H        -3.5007083063      3.5269604138     0.9431317757
 O         3.2702977268      0.9948284543     6.0903745238
 H         2.6401447427      0.2598007835     6.2492157070
 H         4.0481394465      0.5358217354     5.7239004996
 O         5.0472199257      4.1470545449    -1.3745230756
 H         4.9766441021      4.0498488847    -2.3549402589
 H         4.1804873888      4.5483047945    -1.1543632215
 O        -5.8373018795     -2.2848771395     4.8765603021
 H        -5.2767897741     -1.6862261686     5.4149077695
 H        -5.4409397427     -2.1197817010     3.9941766833
 O         2.3420975433     -2.7097116189    -2.6710626218
 H         3.2803702134     -2.8125426993    -2.9520908443
 H         2.1052906096     -3.6354827842    -2.5362525158
 O        -6.7417869128      1.1033081653     1.3371016482
 H        -6.6447378503      2.0386119103     1.6163475142
 H        -5.9185288592      0.9446022976     0.8769605816
 O         5.4186873991      3.6181555740     4.6185848518
 H         4.4674011090      3.3746952061     4.7258279425
 H         5.7532212296      3.4069318976     5.5197710034
 O         2.9553724676      5.0624918410     2.2509614874
 H         2.1530672279      5.6226433719     2.3581993928
 H         2.7967762763      4.4547874743     3.0114883532
 O        -2.7647020392     -5.0252125634     4.9804029601
 H        -2.0735428999     -4.8635365382     5.6394336794
 H        -2.2342055888     -5.1456708810     4.1768101049
 O        -8.0599669033      0.2181500043    -1.4321593186
 H        -8.2016833378      0.1436478906    -2.4025468494
 H        -7.9756498475     -0.7354961278    -1.2083825670
 O        -3.9468480714     -2.7957464274    -4.9790029976
 H        -3.8662430929     -3.2704104037    -4.1202029456
 H        -4.3363222101     -1.9252407769    -4.7300880857
 O         0.5730808429      2.4820813500    -3.9255676463
 H         1.4740663594      2.1333480560    -3.8252251529
 H         0.2379190597      1.8683105392    -4.6114845374
 O         8.4104951401      4.9989059140     1.2975922212
 H         8.3395693819      5.8717620548     0.8688497764
 H         7.4717628809      4.8473388385     1.5408588372
 O         2.9260731535     -3.8116886951     4.2657841922
 H         3.0199935762     -3.6848284126     3.2970835470
 H         3.7408784852     -3.3895997340     4.6043903021
 O        -4.7625859569     -1.7231100626     0.3205234419
 H        -5.6924999273     -1.6509295853     0.6388203904
 H        -4.8157703754     -1.2468420122    -0.5234410751
 O         0.4189563106      1.1363147590     4.7799640743
 H         0.2327909821      1.9644018815     5.2716956698
 H        -0.2695943681      1.2126321124     4.0823350954
 O        -5.1179196592      3.8825321178     0.9228480817
 H        -5.4237485688      3.9148226540     0.0091756661
 H        -5.3540276288      4.7775873152     1.2251582909
 O        -3.8890385815     -6.1057941262     0.5975833845
 H        -4.6076893642     -6.7629806793     0.4722114444
 H        -3.3355780809     -6.3097057117    -0.1855494597
 O         5.5142746434      4.6560107639     1.3500532891
 H         4.5982176126      4.7361295739     1.6749556583
 H         5.3875721557      4.5254032703     0.3913217469
 O         2.8980219247      8.3056199075    -0.7563697603
 H         3.3459856222      9.1374252772    -0.4930981387
 H         2.1417304299      8.6613014889    -1.2542850926
 O         0.0586477841     -2.8945293118     4.4754526159
 H         0.1294753893     -3.7862291010     4.0613715501
 H        -0.4375220916     -2.3796947030     3.7985345655
 O         3.0498535745      1.4298919076    -3.3618690517
 H         3.2101590945      0.8472903355    -2.5822674455
 H         3.8615724872      1.9804669498    -3.3353358558
 O         3.5704648174      6.1162572644    -3.9868986167
 H         4.2890809700      6.7772636586    -3.9706055698
 H         3.4289315183      5.9780588999    -3.0308099107
 O        -2.3584580647      5.1052102152    -2.3429803604
 H        -2.5280196493      4.9768699329    -3.3014442731
 H        -2.3211245209      6.0844002428    -2.2728803347
 O        -3.8960102780      1.8545544499     4.6191249306
 H        -4.3665558237      1.2091887038     5.1628403527
 H        -4.6049940509      2.4194213482     4.2977269525
 O         6.1227764466      1.8372658101     2.3327016869
 H         5.8120801169      2.0142340575     1.4211703424
 H         5.7140969608      2.5676931648     2.8442511492
 O         4.5680544532     -5.9646566704    -1.9410469971
 H         4.2698448816     -5.9077462043    -2.8765504700
 H         5.2439029791     -6.6491693263    -1.9817589721
 O         3.9287562047     -0.5497488604     1.8390020062
 H         3.2053469879     -0.8890566162     2.4074923574
 H         4.4693849783     -0.0763752002     2.5068407800
 O        -1.0222258229      7.3534506867     3.6836019289
 H        -1.7187367051      7.7714181768     4.2208928717
 H        -1.5331754865      6.6199024376     3.2843379914
 O         5.5352577841      0.3169632878     4.5770282719
 H         5.8044648958      0.5592418560     3.6682119003
 H         6.0297960658      0.9419808319     5.1381047220
 O        -4.2077951538     -2.6559135501     2.7354471940
 H        -3.4577028413     -3.2754718653     2.6556109576
 H        -4.2834054928     -2.3567301139     1.8024198853
 O         3.5243142367     -0.0344935902    -1.0580443598
 H         3.2599177473     -0.9596053661    -1.2235902761
 H         3.8473631434     -0.0881417235    -0.1357127229
 O        -2.4701071611      4.6960084019     3.9820269091
 H        -3.4184055109      4.6100320678     3.7614788927
 H        -2.4820251609      4.6070500344     4.9521037384
 O         1.2912742422     -6.0238425306    -2.9402577018
 H         2.0825170349     -5.8831116478    -3.5062902986
 H         1.0104316087     -6.9015530082    -3.2769869504
 O        -6.1006562583      2.3993100030    -1.4941033894
 H        -5.4744672185      1.7008110352    -1.8033130186
 H        -6.8823894927      1.8547179766    -1.2823826069
 O        -0.2222152034      6.6475301235    -4.4052330012
 H        -0.7023305362      5.9601729459    -4.9159885706
 H         0.0452095641      6.1474240679    -3.6034787854
 O         2.6821443069      3.0525048944     4.0466997811
 H         2.5953315755      2.2227596538     4.5553036291
 H         1.7861787845      3.4357532142     4.1452724628
 O         6.9176671533     -0.7277302941    -1.0062430737
 H         6.4924607417      0.1548432988    -1.0019282464
 H         7.6666067675     -0.5977400242    -1.6231588634
 O        -1.5864042702      2.2516094754    -6.8095382923
 H        -1.8926298606      1.7513989103    -7.6007003436
 H        -0.9501944181      1.6098959678    -6.4360855928
 O        -2.1139569911     -4.5190190403     2.0746179572
 H        -1.3024275801     -5.0049468634     2.3146714472
 H        -2.6999543493     -5.2317504265     1.7577096802
 O        -2.4224538203     -0.8347968844    -3.2501546854
 H        -1.6695328481     -1.4252298580    -3.4234298037
 H        -2.0635345366     -0.0013059123    -3.6292798208
 O        -4.6585138564      3.6767258722    -4.4236552887
 H        -4.7435650801      4.5725508943    -4.0361979779
 H        -5.0984003892      3.7644384257    -5.2922646896
 O         5.4966699632      6.2956469452     3.8525764939
 H         5.7916757946      6.2801999141     2.9171775200
 H         5.4553074380      5.3516507752     4.0888697722
 O        -2.7430576733      1.8201586144    -4.3057573287
 H        -3.4576108866      2.4817806580    -4.2246190675
 H        -2.7426775753      1.6916779038    -5.2770741652
 O        -7.0192270727     -4.2700152541     2.3956975112
 H        -7.0772834258     -3.3658523375     2.0202691806
 H        -6.2652813236     -4.1607285035     3.0092279859
 O         0.3130795457     -5.4249800494     3.7179272062
 H         0.7047028709     -6.0219910026     3.0407231945
 H         0.7395548552     -5.7581755001     4.5374210972
 O         1.9317756736     -1.0278214287     3.6078266971
 H         1.3307171550     -0.3751581789     4.0245856666
 H         1.6997170771     -1.8551407353     4.0778984507
 O        -6.3398529089     -4.8896867110    -0.1917910044
 H        -6.6101336689     -4.7936438527     0.7424937520
 H        -5.3665887052     -4.9734323206    -0.0814058125
 O        -0.2428765340     -2.3272163372    -3.8031725116
 H        -0.5644810546     -3.2533502844    -3.7684063989
 H         0.6448856548     -2.4068453125    -3.3969657249
 O         0.1912188560      3.9998414969     3.7683953649
 H        -0.6817945300      3.8754564773     3.3460603005
 H        -0.0126567133      4.7145087226     4.4067306337
 O        -0.9226911157     -0.6910388215     6.3681616796
 H        -1.1333142085      0.2294063466     6.1166284396
 H        -0.8804245314     -1.1153467941     5.4867144232
 O        -7.8232109103     -2.4788224400    -1.6323688612
 H        -8.2526329229     -2.8607783683    -2.4113710036
 H        -8.0827178858     -3.0888641217    -0.9242513156
 O         4.2016600118     -6.7191813355     0.8366917188
 H         4.4665062614     -6.1189411685     0.1085336205
 H         5.0778362440     -7.0091319561     1.1655891465
 O        -2.4115301205      2.5652972250    -1.7356394856
 H        -2.5144774582      3.5321763446    -1.8969437898
 H        -2.4016564268      2.2654649899    -2.6629185337
 O         1.3239693354      7.7012898622     2.3653865737
 H         0.8021347273      7.8406226287     1.5404763776
 H         0.5696268072      7.4952756263     2.9658821249
 O        -4.2254266854     -3.5370007304    -2.4231120617
 H        -4.7743707998     -2.7783081547    -2.1363107107
 H        -4.6037878002     -4.2690701253    -1.8937425842
 O         3.2561972937      4.3254514612    -6.1113616419
 H         3.1292834830      5.1664972176    -5.6203952092
 H         3.9578853478      3.8936469192    -5.5899230791
 O        -2.6543537494     -5.8091815078    -5.3437263349
 H        -2.8422876789     -6.5569895596    -4.7461262249
 H        -2.7748760564     -5.0428545948    -4.7498653769
 O        -1.1011739314     -4.8196206821    -2.8650321429
 H        -0.3819493467     -5.4417058223    -3.0479409315
 H        -1.5997086524     -5.2959293108    -2.1771809339
 O         2.8460872045      5.7006400879    -1.1502250511
 H         2.8400373959      6.6479464294    -0.9034741569
 H         1.9385635388      5.5546956112    -1.4698079037
 O        -2.0066514488      5.7996063749     1.0859575366
 H        -1.8016427150      4.8517671248     1.2272341755
 H        -2.9871499171      5.7972036528     1.0902950899
 O        -0.6554684965      8.1609205697     0.3232845334
 H        -0.9496162520      7.2725353002     0.0390541504
 H        -1.4666017692      8.5260528540     0.7304686517
 O         4.0110231027     -6.3380705670     3.6454317775
 H         4.0021898846     -6.5748853722     2.6851361188
 H         3.2639187249     -5.7293108230     3.7044469637
 O         6.4843601400     -4.0216139975    -3.1901512797
 H         6.1558280915     -4.2464227885    -2.3005865756
 H         6.0509761463     -3.1749365085    -3.3816245629
 O         4.7666241876      7.7705236066     1.1228236577
 H         4.2554660290      7.0447038389     1.5342641956
 H         4.1536714159      8.0270542200     0.3955138865
 O         0.3160725576      5.2901011417     6.3513541497
 H         0.6260892993      6.1608824616     6.6751896086
 H         0.8791604945      4.6824902193     6.8689337327
 O        -7.1821455490     -1.5754683742     1.5421677362
 H        -7.1000307700     -0.6290380733     1.7815288339
 H        -8.0153656691     -1.5487078903     1.0332011566
 O        -4.7653585787     -0.3972399433    -2.2657574032
 H        -3.8583453997     -0.4593366274    -2.6479548966
 H        -5.2969274998     -0.5231585123    -3.0586139354
 O        -2.2122687111     -3.1199144964    -7.0777411930
 H        -1.6053234307     -3.8530453123    -6.8320485542
 H        -2.6099305008     -2.9562905277    -6.1967718778
 O         0.2522287528      0.0348993302    -5.7954523422
 H         0.2541823885     -0.7147515347    -5.1654751708
 H         1.1928310756      0.0245894206    -6.0899243906
 O         1.7270807496     -7.1021733486     1.9452929143
 H         1.9992870980     -7.9643389448     2.3082456278
 H         2.5293320978     -6.9115635917     1.4122185177
 O         0.3448099036      4.8690506927    -2.3329128821
 H        -0.5609690222      4.8058630566    -1.9607036413
 H         0.4590969384      3.9878418317    -2.7551099407
 O         3.3123728644     -5.4689212546    -4.8027438645
 H         3.5483058953     -4.6327661510    -5.2459428242
 H         3.3880182633     -6.0753210595    -5.5669324273
 O        -1.9562487475     -6.7820407014    -1.2524586204
 H        -1.8100831580     -7.4717044002    -0.5641815178
 H        -2.2439484139     -7.3714115967    -1.9840459361
 O         5.1583297798      3.1245719773    -4.1853754251
 H         5.8980020090      3.7337863668    -4.3427318194
 H         5.6092372374      2.2527442118    -4.2373872653
 O         0.9262363445     -5.2394828338    -0.1382735350
 H         0.9008990535     -6.1221269559     0.2857546016
 H         1.0121594645     -5.4818871755    -1.0775104261
 O        -5.7031152440     -0.4777131720    -4.8192095721
 H        -5.6927599880      0.0092518147    -5.6688538302
 H        -6.3845874649     -1.1530785580    -5.0215347568
 O         3.3882163773      9.0695680717     3.6494643945
 H         3.1276109065      8.7152726626     4.5135838270
 H         2.8796903365      8.4895786581     3.0438928701
 O        -1.7417946269     -8.8035656030     0.5552404239
 H        -0.9126270148     -9.3318528107     0.5940615616
 H        -2.3728317361     -9.4192659928     0.9870186015
 O         4.9996612714     -1.7610829300    -3.7962889947
 H         5.4659334780     -0.8999470641    -3.8276270127
 H         4.3023009245     -1.5777173751    -4.4532229268
 O        -1.5060030402     -1.2371985829     3.1037357364
 H        -2.3995008066     -1.6422393110     3.0717801811
 H        -1.7250432974     -0.3041575198     3.2871055202
 O        -4.4678467499     -7.3647543356     3.4650129902
 H        -3.7089831499     -7.1011817292     2.8997761002
 H        -4.3766073798     -6.7551461597     4.2292197588
 O         4.3787147042     -2.9550482498    -0.6590652062
 H         5.0211427596     -2.5246707602    -1.2738544564
 H         4.8699797643     -3.7528528249    -0.4319013769
 O         6.5915112542     -1.6089484401     1.6522975338
 H         6.8425568910     -1.2720661739     0.7646217961
 H         5.6184824514     -1.6270501217     1.5264075077
 O         2.9643839826     -4.0378918452     1.4681294995
 H         2.2275994369     -4.4323261705     0.9580298796
 H         3.3816029778     -3.4922597002     0.7750706767