547
charge = -1 c15_01_qmmm_aw_08.00.xyz
 C        -2.5638330769     -0.8296938462     0.1428161538
 C        -1.0705130769     -0.4402038462     0.0734361538
 O        -0.2560530769     -1.3839138462     0.1563561538
 O        -0.8326430769      0.7962061538    -0.0561338462
 H        -2.7812630769     -1.5671138462    -0.6300638462
 H        -2.7657130769     -1.3047638462     1.1034361538
 H        -3.2120230769      0.0354461538     0.0208161538
 O         5.7524020867     -2.4813343551    -7.3860376107
 H         6.2732151359     -2.1590679900    -8.1494135282
 H         6.4231640482     -2.9875921705    -6.8794733786
 O         4.5391927341     -6.9103943133    -1.9824843733
 H         4.3137489198     -6.3797198832    -2.7765555167
 H         5.4754277907     -6.6727874553    -1.8269870194
 O         6.0451974667      7.0788971232     1.6283425284
 H         5.5291841684      6.4633132264     2.1911400559
 H         6.3226328317      7.7493449005     2.2859493538
 O        10.3458292702     -0.7919543865    -3.6758879230
 H        10.1283448421     -0.0933315437    -4.3277373703
 H        11.3151035663     -0.8306071504    -3.8225322243
 O        -2.8770438598     -6.2839587717    -3.1716692055
 H        -3.1163488988     -5.3845313234    -2.9065608127
 H        -1.9020817197     -6.2630640851    -3.2271206369
 O         2.7061750611     -3.8021897680    -0.3301807326
 H         3.0410907457     -3.2113300822     0.3641591546
 H         3.4108095018     -3.6998384331    -1.0092615092
 O        -4.5680378081     -8.9960802702    -3.6703945933
 H        -5.2673515790     -8.5397237141    -3.1528962929
 H        -3.7850166665     -8.4460404849    -3.4674875904
 O         1.2072539531      7.5771464013     5.5551186931
 H         1.6545050707      7.8211498493     4.7217406874
 H         0.3142830177      7.3760833204     5.2150458196
 O        -2.0284633633     -4.7480882620     8.6965362510
 H        -1.1683176414     -5.0315287589     8.3223897211
 H        -2.5941022504     -4.8285987354     7.8990658138
 O        -8.0056291889     -0.1939429158    -5.5059856445
 H        -8.4804929473     -1.0135822668    -5.2615942317
 H        -8.1251611754     -0.2002912774    -6.4767655392
 O         1.9868458848     -4.7381316347     5.5683222074
 H         2.1595927549     -4.1577598382     4.7980691524
 H         1.6641797291     -5.5346289826     5.1015828693
 O        -3.7394719659      3.6104769980    -4.0453615422
 H        -3.5430774393      2.6931298261    -4.3189529705
 H        -4.5918985754      3.7809924536    -4.4628253040
 O         7.9505496680     -3.2554182899     0.0289407166
 H         8.0104882565     -2.3604705733    -0.3753532373
 H         8.3382911147     -3.7652531316    -0.7234196741
 O         5.8635742830     -4.8170633704     1.2440110877
 H         6.1959725673     -5.4333473896     0.5645804864
 H         6.4504560524     -4.0512659636     1.0822025425
 O         6.8604764177      0.1030860555     5.2235947291
 H         6.7777949894     -0.8656242486     5.1012939529
 H         6.9719121705      0.1296797389     6.1966212600
 O        -6.4993067596      4.1640387078    -2.2963529985
 H        -6.1105198705      3.7684246315    -3.1128240605
 H        -6.8626623531      4.9997381823    -2.6526081997
 O        -2.4621092021     -4.9888884637     6.0778519653
 H        -3.4342068485     -4.8241238096     6.1535221864
 H        -2.4656911490     -5.7445554439     5.4400740962
 O         0.7471874875      3.8813209603     5.4975668352
 H         0.1862036128      4.0132388226     4.7071099322
 H         0.3387699645      3.0744653132     5.8694925478
 O        -1.0065669843      2.1949785219    -2.0818498875
 H        -0.9827951940      1.7119980781    -1.2442252842
 H        -0.5249286480      1.5590393631    -2.6621766670
 O         2.1435452351     -0.9306074988    -7.9609713868
 H         1.9201156404     -1.4652765861    -8.7443238788
 H         2.9549852975     -0.4829991170    -8.2858728889
 O        -5.5864978315     -0.7354534512    -4.1016957426
 H        -5.8310167969     -1.5523794486    -3.6244389185
 H        -6.2276255039     -0.7228062770    -4.8386419131
 O        -1.5003964863     -1.2157223027    -5.2443103407
 H        -0.9365138388     -1.9975508691    -5.0358191573
 H        -0.8938807082     -0.6583723281    -5.7528638695
 O         1.1093933867      7.0850735583    -4.7996043267
 H         1.7611393824      6.4942352455    -5.2292744654
 H         1.1532956262      6.7545857345    -3.8696370047
 O         8.3445331739      2.3417823868     4.4962396783
 H         7.9843557985      1.4991478834     4.8440790298
 H         7.5667536174      2.7257982283     4.0431626230
 O         0.0748858190      2.7760858137    -7.1586763572
 H         0.2985978479      3.2811098719    -6.3659861419
 H         0.7873506588      3.0200895777    -7.7649911570
 O         8.4481037201     -0.8910889834    -1.4599815832
 H         9.2919763221     -0.5087370866    -1.7639472989
 H         7.9333461596     -0.8314658504    -2.2934626832
 O         4.2207686657     -0.6039626307     8.0324943161
 H         3.6368665250     -0.3940864880     8.7959823763
 H         3.9284274585     -1.5152929325     7.8091390194
 O         0.5209102330     -5.5238293975     7.9964011481
 H         0.6650965070     -6.2768168152     7.3834930834
 H         0.6250565502     -4.7753160569     7.3721228487
 O        -6.1919441653     -7.0772301042    -5.7106032944
 H        -5.2157916620     -7.1182017779    -5.7211779786
 H        -6.3486858481     -7.1123030580    -6.6711847929
 O        -8.4017439508     -5.2548047835    -1.9085567529
 H        -8.1605031295     -5.3075303620    -2.8463472837
 H        -7.6534005280     -4.7478014916    -1.5531007256
 O        -6.8635413774     -2.6364186227     4.1803480306
 H        -6.8221438121     -1.7023284702     3.8851882269
 H        -7.1032110131     -3.1065001306     3.3539025729
 O         4.1900370713     -2.6969394440    -4.4745687397
 H         4.4832895326     -2.5524034899    -3.5466856401
 H         4.5969666499     -1.9202736047    -4.9129906146
 O         1.6037623559      5.4264075905    -2.6384518034
 H         1.4091698689      5.5993496114    -1.7007435302
 H         1.9711305976      4.5170839625    -2.5896241459
 O         7.1668452067     -4.3717927997    -2.8957491681
 H         7.6064480933     -3.8005783174    -3.5542434951
 H         7.7147281784     -5.1780109270    -2.9548803034
 O         8.9106673834      6.1843860887    -2.1397326376
 H         8.1158361757      5.9570272310    -2.6748627758
 H         8.6196813190      5.8341868127    -1.2709987461
 O        -4.8207082212      5.4184238201    -0.3471343660
 H        -4.3907160803      5.8117516158    -1.1388043280
 H        -5.6249884568      5.0397166511    -0.7637400147
 O        -4.2496478776      2.1953077158     1.2441752155
 H        -4.3546783380      2.2708509110     0.2795731301
 H        -5.1659936512      2.3600937434     1.5700905913
 O        -6.4224498762      0.0299869117     3.0464721116
 H        -7.3245616806      0.3823311100     2.9372848233
 H        -6.0130754020      0.6663661118     3.6719791831
 O         8.2944524292      1.8806621198    -2.9753170645
 H         7.6621192846      1.5896699498    -3.6679946822
 H         7.6904299010      1.8961984213    -2.2027790892
 O         9.7107429735      4.4363045247     2.9005422409
 H        10.6739748747      4.3057189513     2.8475181784
 H         9.4272768229      3.5150153489     3.1367561704
 O        -1.5327572753      7.3743348239     5.0032684693
 H        -2.0615094321      6.5543028800     4.9590857457
 H        -1.7179269773      7.7009316230     5.9125623128
 O         4.7171774154      2.4348594612     7.0174163057
 H         5.0314924147      2.1562376126     7.8969799978
 H         4.5490440001      1.5626936125     6.6020551620
 O         8.0856294110     -2.7862040401     2.6769385915
 H         8.0790307956     -2.9638399315     1.7102951963
 H         8.7531446771     -2.0712878276     2.7274628350
 O        -7.8801777513     -3.7701692562     1.9663063153
 H        -7.2394015466     -4.4893315238     1.8597572047
 H        -7.7793463553     -3.2755689816     1.1344765803
 O        -5.3412930080      1.4455298172     7.9473575489
 H        -4.5457116992      1.4983628946     8.5077004449
 H        -6.0245514374      1.3262939700     8.6397401495
 O        -4.9011537936      4.3488068537     6.1899051019
 H        -4.4538269232      5.1275953244     6.5900402713
 H        -5.1803376165      3.8800470729     7.0032412625
 O        -5.6971390854     -2.0730323790     6.8306161868
 H        -4.8525661664     -1.5858630413     6.9305983937
 H        -5.7734633723     -2.0759517192     5.8526878474
 O         0.0276570283      3.8492589952    -4.5188094795
 H         0.3513592963      4.5804189832    -3.9474753582
 H        -0.5712765894      3.4061921903    -3.8895311320
 O        -3.4016536208     -7.0398267717    -6.2649541817
 H        -2.5668365413     -7.4006811095    -5.9026827802
 H        -3.2337986109     -6.0902863274    -6.2343882505
 O         2.8206885495     -2.9792378503     7.3852463425
 H         2.5010636022     -3.5487517669     6.6572488762
 H         1.9699469276     -2.5925152019     7.6713436953
 O         2.2188909619      2.5948948935    -2.6109347962
 H         2.1282868158      2.1917607455    -1.7204438076
 H         1.6641029708      1.9849601927    -3.1422224452
 O        10.2274824117      2.9739551559     0.1976148711
 H         9.4523416541      2.4083703672     0.4137663757
 H        10.0318879363      3.7975814236     0.6923647775
 O        -2.3083849161      6.3652415295     0.6422901660
 H        -3.2604562700      6.1592948567     0.7385131519
 H        -2.0268490500      5.6247657214     0.0711550149
 O        11.0094998106      2.3987886519    -2.3169768380
 H        10.9217868697      2.8254646512    -1.4409427219
 H        10.0685069960      2.2906104585    -2.5789222673
 O         0.7160044104      4.5849207231    -0.1280132752
 H         1.0133303127      3.6523657872    -0.0739303939
 H        -0.2244260503      4.5060430523     0.1428459988
 O         3.1632932470     -3.4722352560    -7.3315263270
 H         4.0354361712     -3.1505453163    -7.0070320726
 H         3.1162061258     -3.0462337167    -8.2095492287
 O        -1.9539279141     -6.1473519429    -0.2452019053
 H        -1.1026094760     -5.7074313907    -0.4500971761
 H        -2.1013474974     -6.6947573002    -1.0276525718
 O        -0.2618300539     -0.0408001172    -7.3271352788
 H         0.0716630787      0.8399580945    -7.5158008612
 H         0.5642037840     -0.5736155176    -7.3659871184
 O         3.6480049454      3.6834933496     0.5014447215
 H         3.5144953302      3.9874040949     1.4318036048
 H         2.7893766464      3.2341873293     0.3557922966
 O         6.0150868671      0.1340081480     2.4606887997
 H         5.2132458215      0.6504993888     2.7028683504
 H         6.3431217130     -0.0544584107     3.3662653821
 O        -5.3532931495      5.4184651037     2.3220627884
 H        -5.2949214149      5.3092516004     1.3549016170
 H        -5.8588667396      4.6331363452     2.5923209331
 O         6.9724656567     -6.3765514747    -0.5843054801
 H         7.4721413770     -7.0292073665    -0.0502791372
 H         7.7156977116     -5.8785554556    -0.9857167357
 O         0.7996654658     -5.8317147113     3.2975585195
 H         1.5655569954     -5.5281207390     2.7675527455
 H         0.1518902358     -5.1162702755     3.1172708140
 O        -6.1258062489     -6.0316261326     1.9795284367
 H        -5.7722270225     -6.9300087036     1.7827046790
 H        -5.3021113419     -5.5033302892     1.8702673522
 O        -0.0253632400     -3.9628129827     0.2521873452
 H         0.9520713776     -4.0549868643     0.1069022017
 H        -0.0921188597     -2.9836334446     0.2184518044
 O        -7.3484895014     -5.9340080320     4.4884500937
 H        -8.2844054568     -6.1285650811     4.3071419294
 H        -6.9568744465     -6.1079273363     3.6136517702
 O        -6.6244654985      1.1055799534    -2.3709325995
 H        -5.7551693832      1.3469535876    -1.9641007990
 H        -6.3442783060      0.3326262129    -2.9185496985
 O         0.5315960958      0.4548890948    -3.3653368419
 H         0.6892348648     -0.2681381008    -2.7193555165
 H         0.6344832309     -0.0474728717    -4.2052709519
 O        -2.1626133990     -7.8705953653     1.8377086145
 H        -1.9283375299     -7.1375324041     1.2438684398
 H        -3.0809398765     -8.0346455261     1.5577058812
 O        -4.5792657668      7.3621465154    -2.6432235254
 H        -5.5347938433      7.4681242421    -2.4506103669
 H        -4.2325640663      8.2366599378    -2.4003389945
 O        -4.0067738468     -4.5814761106     1.1000563822
 H        -3.8123951241     -3.6325324933     1.2825847641
 H        -3.1407067871     -4.8959071806     0.8157047342
 O         6.7855942909     -7.0322664189     2.4501265154
 H         6.2531148235     -6.2293267734     2.2545854377
 H         7.6394115580     -6.6145295212     2.6787985942
 O        -2.3040020992     -7.3223985761     4.6695803849
 H        -2.4068215377     -7.3603363666     3.6929988947
 H        -2.8750134129     -8.0673116805     4.9340473292
 O        -5.4834937924     -0.6707119082    -7.5341160223
 H        -5.7435007974      0.1748813753    -7.9457116319
 H        -4.6103055915     -0.8693488726    -7.9280432188
 O        -2.6756856259      7.3772734909    -4.5835383559
 H        -3.5063366534      7.2508773452    -4.0849281331
 H        -2.0305976913      7.2676623913    -3.8677298145
 O         5.1899670387     -0.3550900814    -5.7697171119
 H         4.6498909509      0.3816726081    -6.1463919123
 H         5.3864984976     -0.8358419530    -6.5973957006
 O        -5.1224233093     -4.8490058836     6.1363669877
 H        -5.3249118890     -3.8919229039     6.2056498453
 H        -5.6616470916     -5.0679287983     5.3451342279
 O         6.0241525508      3.2787277665     3.5552626158
 H         5.6949712096      3.9835107325     2.9445318543
 H         5.2093585019      2.7355429816     3.6704203978
 O         0.3107593260     -3.7771087873    -7.3211453793
 H         0.1055771220     -3.1126022843    -6.6279362025
 H         1.2541501996     -3.8988402630    -7.1719873496
 O        -3.0464483117     -0.7027301247    -8.8690103906
 H        -3.0062220455      0.1482808890    -9.3616358251
 H        -2.2273858841     -0.6361483944    -8.3335725434
 O        -0.7028715468      7.4476556598     2.4357818853
 H        -1.2133825461      7.4215424876     3.2655516011
 H        -1.3379693033      6.9902318277     1.8377489499
 O         5.9976582967      2.7904332577    -0.3552759407
 H         5.7008649491      2.7519983374    -1.2899163978
 H         5.1633175793      3.0073303120     0.1046809833
 O        -2.8862269612      0.2656529696     8.8598896534
 H        -2.3136200962     -0.3629039109     9.3126924027
 H        -3.0442296305     -0.1997790346     8.0082204477
 O         1.3760062802      0.3730914062     7.8609470182
 H         1.1811844133      1.2831786105     8.1624719366
 H         1.6747639617      0.0078082396     8.7170525038
 O        -2.7326591187      2.1926512328    -7.1006033920
 H        -1.8362251025      2.5834830883    -7.0059174438
 H        -2.8641345027      1.7987390767    -6.2099918770
 O         1.0695539523     -5.9893954282    -4.8096134992
 H         2.0049807935     -5.8777201765    -4.5348526792
 H         1.1825102183     -6.3580148879    -5.7133126350
 O        -5.6502839125     -4.8084499846    -1.0488825032
 H        -5.1409749001     -4.1624465726    -1.5919159189
 H        -5.1318074161     -4.7932690425    -0.2135244074
 O         3.4243089201     10.1169060707     0.8321399561
 H         2.9278929300     10.9396074250     0.6353527513
 H         3.0226878983      9.5244688530     0.1612487929
 O        -7.5473227715     -2.1947153909    -0.1794179741
 H        -7.8980141807     -1.3182133241     0.0847672181
 H        -7.6438851936     -2.1199512584    -1.1534243603
 O        -5.2912976010      1.5410276839     5.1125300406
 H        -5.2717852422      1.3063498721     6.0689460646
 H        -5.3615951980      2.5188493346     5.1531447657
 O       -10.1572839280      2.0333761805     0.0867378539
 H       -10.5160328245      2.8092355126     0.5772512391
 H       -10.1875615960      2.3553373635    -0.8238480097
 O         1.8322444009     -7.2191522091    -0.8068292469
 H         2.7230130850     -7.1079340531    -1.1938401674
 H         1.9878444448     -7.0240819895     0.1364077650
 O         1.9111756928      3.3323028741     2.6358259397
 H         1.5186328018      4.0575210372     3.1387157351
 H         1.1782419061      2.6772983436     2.6014646861
 O         7.9269893480      1.2151442322     0.6299842457
 H         7.5228682365      0.9217602471     1.4533311070
 H         7.2382610214      1.8066811391     0.2571487023
 O       -11.0791846427      0.7838881359     2.7829652340
 H       -11.8592207360      1.3366023523     2.9335755325
 H       -10.6550486659      1.2790992819     2.0574434694
 O         4.6736324432     -5.1841653199     4.1269080552
 H         3.9958251672     -4.6539120512     3.6504182747
 H         4.2087957116     -6.0471668411     4.2056413765
 O         6.9831383860      4.1524857020     6.3630377266
 H         6.0191570807      4.0007758436     6.2149074518
 H         7.3289256320      3.5139759613     5.7037418111
 O        -2.8231914339     -1.3724190474     6.6683640642
 H        -3.2121746382     -1.3936301755     5.7690104315
 H        -1.8906025608     -1.1609701626     6.4574674906
 O         3.5405518155      4.3346898792     5.4847618401
 H         3.9961687433      3.6657257040     6.0341218935
 H         2.6574214022      3.9556777525     5.3740014286
 O         2.8507355832      9.0195957789    -3.9300590598
 H         2.6782732661      9.0419095893    -2.9702684219
 H         2.0905862010      8.4721851278    -4.2275117683
 O         6.5782025239      5.1784579239    -3.4518396616
 H         6.1237483375      4.4312797761    -3.0160731925
 H         5.8935873571      5.8688623999    -3.4131326885
 O        -8.4486487090      2.0085046345    -4.2469450502
 H        -8.2004511747      1.2211922850    -4.7815409596
 H        -7.8648710933      1.8641871744    -3.4761093596
 O        -6.2351752827     -7.8116909132    -1.7804622097
 H        -5.6564004759     -7.0390689981    -1.9748315698
 H        -6.8680226624     -7.3981269884    -1.1538350394
 O        -0.1406372207     -6.4257980546    -2.6254474395
 H         0.5288322742     -6.8481766342    -2.0405910515
 H         0.3029005967     -6.4652953685    -3.4990835497
 O        -8.1840037635      4.5188910594    -0.2303066503
 H        -7.7322125579      4.2447575885    -1.0548413888
 H        -9.0133944643      4.8890047763    -0.5960332909
 O        -3.6995168450     -3.5993329254    -2.7957983550
 H        -2.8193810015     -3.2229248154    -2.5692381638
 H        -3.7591582270     -3.3425844610    -3.7265759991
 O        -6.8407803885      3.0147649689     1.8545606205
 H        -7.2899335659      3.8253374840     1.5773272927
 H        -7.1969164150      2.3940262530     1.1800597209
 O         0.2449987832     -2.3746637641     8.0993160744
 H        -0.6105611781     -2.8421472564     8.0198012481
 H         0.0838588319     -1.7582167826     8.8432711405
 O       -10.6983330865     -3.0047456708     1.3048498338
 H        -9.7465261243     -3.1709986478     1.1252334469
 H       -10.8608744181     -2.2355839076     0.7195367514
 O        -7.7608050648      0.7105929963     0.1137425128
 H        -8.5786642916      1.2358178967     0.0067333190
 H        -7.3581628193      0.8014278030    -0.7727482140
 O         8.7462385770      5.6240117945     0.6925851339
 H         9.1656602353      5.4434451623     1.5593797082
 H         7.7867006324      5.6769451999     0.9265426263
 O         8.2413783651     -0.4451791488    -6.0733552066
 H         7.5233532892     -0.1861543126    -6.6922236667
 H         8.7353699917     -1.1051167727    -6.6031515291
 O         0.9713398478     -2.0868431540    -1.9924629012
 H         1.6878279200     -2.6145463084    -1.5758818746
 H         0.4542759058     -1.8756707081    -1.1828758329
 O       -10.9131026069     -0.5718184563    -0.0909497082
 H       -10.9498952153     -0.4069341199    -1.0576245202
 H       -10.9897273725      0.3566657082     0.2172742709
 O        -1.4798099952      5.6259544515    -6.3542905076
 H        -0.8459741143      5.2911577349    -5.6898166741
 H        -2.1548755266      6.0187784452    -5.7627722106
 O        -5.0808238356     -2.1193547123     1.6430681698
 H        -5.3869132765     -1.3073890519     2.0899202147
 H        -5.6192241284     -2.0899554687     0.8263883562
 O        -1.6306599188      3.1924760265     0.6095431257
 H        -1.6121131508      2.2836490117     0.2777877253
 H        -2.5597812756      3.2132952214     0.9476322180
 O         2.8100414553      2.8599531979    -5.4026176254
 H         2.1309342416      2.9643438424    -4.7081764041
 H         2.8482024110      3.7618358897    -5.7806377269
 O        10.0785394413     -1.0086107929     1.5582121479
 H        10.9537006967     -0.6101635635     1.7189226036
 H         9.5843107796     -0.2954724533     1.1053908076
 O         5.6409584494      5.5681641219    -6.0427604682
 H         5.8740195877      4.8190315280    -6.6404398336
 H         6.2569674908      5.4182040936    -5.3142988369
 O        -9.8864568875     -3.1669297971     4.3713456938
 H        -9.4022350072     -3.5004196769     3.5863357351
 H        -9.5773054379     -2.2368751062     4.3944409394
 O         4.1251368590      6.3783198769    -0.2026071435
 H         3.9204703098      5.4396774949    -0.0119931479
 H         4.8350491706      6.5750211463     0.4423360720
 O         2.5427904141     -3.0627254785     3.4774138899
 H         3.2050464461     -2.5269848668     2.9949224266
 H         1.7595656016     -2.5065534028     3.3791417272
 O         6.9235857622     -1.0265657864    -3.7719900317
 H         6.2618402874     -0.7214593644    -4.4292537348
 H         7.6570623832     -1.2599413288    -4.3543964587
 O        -3.2802118961      0.8740425119    -4.5097202839
 H        -2.4860818917      0.3255424123    -4.4466636155
 H        -3.9904212554      0.1979282631    -4.4742740954
 O        -0.8169442576      7.0388919167    -2.3696136528
 H        -0.5334554507      7.2854066277    -1.4701504624
 H        -1.3122446368      6.2129828730    -2.1703027341
 O         4.9870577742      2.7751602811    -2.9829065387
 H         5.4106549223      2.5358668489    -3.8329398012
 H         4.0467595909      2.5253361999    -3.1302643268
 O         6.1523362234     -0.8971071475     0.0980864050
 H         6.9693908230     -0.5661364408    -0.3346105407
 H         6.0139773452     -0.2252241550     0.8042623194
 O         6.5085035175      2.0517558169    -5.3692958193
 H         6.6268708402      2.6249105477    -6.1774314794
 H         6.3328445032      1.1809575976    -5.7729746352
 O         5.8736924112      9.2106974314    -0.1572304232
 H         5.0196039188      9.5313278643     0.1682280528
 H         6.0960423636      8.5392638539     0.5037469246
 O        -2.8358451383      1.6492084139     3.4138214214
 H        -3.5768330831      1.7229135693     4.0537586236
 H        -3.2987683375      1.7917000741     2.5675489118
 O        -2.0027678444      4.6410527611    -2.0740816033
 H        -1.5353863223      3.7882881000    -1.9736692305
 H        -2.6236427757      4.4075558335    -2.7719095441
 O        -9.1402013230     -0.2239251868     4.6122029077
 H        -9.0952062039      0.6316364355     5.0952626835
 H        -9.8842480510     -0.0316713816     4.0064346782
 O        -0.7625628150      4.4571696652     3.1766782951
 H        -1.6284022833      4.6861342868     3.5818910120
 H        -1.0652486595      3.8411862246     2.4991367419
 O        -4.1627593546      2.1189553392    -1.5334520007
 H        -4.1530070099      2.8499034815    -2.1911995859
 H        -3.6196299375      1.4589472554    -2.0354638820
 O         3.9089351708      1.5261591210     3.4141204798
 H         3.2716998449      2.1795270499     3.0750101436
 H         3.3398539390      1.0118327072     4.0328446963
 O        -1.1531394012      2.0144365811     5.6950597536
 H        -1.6646521919      1.8159616684     4.8813086048
 H        -0.7183714386      1.1505184576     5.8639945210
 O         4.5529597400      6.8588635920     5.9953692942
 H         5.0681707621      6.6256854625     6.7860632114
 H         4.1362489802      5.9987329321     5.7841615374
 O         2.6470022100      8.7772369366     3.3086733434
 H         2.5623066333      8.0394047202     2.6670077425
 H         2.9226151082      9.5026278011     2.7027010305
 O         0.4769719520     -1.3832316694     2.7329083858
 H         0.4494633298     -0.4249411018     2.9340624015
 H         0.3789878831     -1.3448376160     1.7630491373
 O        -0.3319492205     -0.4438268216     5.7973849525
 H         0.2005874185     -0.4859731930     6.6251694474
 H        -0.2242907136     -1.3624525942     5.4569241354
 O        -0.0553939708      8.4464459242    -0.1845509645
 H        -0.3442287152      9.3745769849    -0.0546443941
 H        -0.3105493227      8.0556225328     0.6879734218
 O        -0.6270620001     -3.7329356151    -3.8455002258
 H        -0.1975965230     -4.5973760974    -4.0274953821
 H        -0.1195042046     -3.4643737259    -3.0512402335
 O        -3.5515395596     -2.8351751442    -5.4168109997
 H        -2.9934149867     -2.0352683114    -5.5572710665
 H        -2.9485650421     -3.5474684793    -5.7184526268
 O         6.3353083645     -2.6027838683     4.8269762749
 H         5.7426436854     -3.3471142313     4.5791704731
 H         6.9017518229     -2.5681852616     4.0254682667
 O        -6.1756275544      3.4627953732    -5.4206816378
 H        -6.3902768238      3.6494853917    -6.3438415421
 H        -7.0386149283      3.1298327856    -5.0966638767
 O        -0.2892922908     -3.2955317292     5.3233135554
 H         0.4169323039     -3.9272969743     5.5781290072
 H        -1.0686902977     -3.7193078797     5.7446415176
 O        -8.2212102246      1.3929959999     6.6191500031
 H        -7.2966086484      1.4226900874     6.8913015525
 H        -8.6610008381      1.8952181134     7.3294009661
 O        -0.1615026314      1.3046658160     2.7111909622
 H        -1.0242861642      1.3224336092     3.1348289859
 H        -0.3857177825      1.4612273499     1.7702451909
 O         2.9434823273      0.1045026442     5.5938960494
 H         2.3870716462      0.3971707119     6.3409584931
 H         3.5569141318     -0.4925447134     6.0591034873
 O         4.3623674625     -2.4696061554     1.5391128949
 H         5.0087167473     -3.1511901102     1.7685807759
 H         4.9493310742     -1.8371656368     1.0819430785
 O         3.8207075739     -5.4182929400    -4.0951684537
 H         3.9975764284     -4.4491986152    -4.1182716053
 H         4.3842096431     -5.7063848721    -4.8542989275
 O         0.1008559033     -9.2727848775    -0.1811242875
 H         0.0927014408     -8.9707025129     0.7526947709
 H         0.5374688861     -8.4932772371    -0.5885689720
 O         4.8028175988      7.3035580910    -3.2402195452
 H         4.5062495820      7.3758923452    -2.3032777515
 H         4.1061754010      7.8556552087    -3.6602217880
 O        -2.2951329754     -4.5858204052    -7.0706863046
 H        -2.4473201181     -4.9847088233    -7.9561300896
 H        -1.3304682048     -4.5420797217    -7.0712168268
 O         0.4955855247     -7.3148983769     5.8150856650
 H        -0.2712843550     -7.1764059737     5.2138524586
 H         0.8047026702     -8.1811033032     5.5023817618
 O       -10.4037211001      2.8991289005    -2.6851289795
 H       -10.4503962796      3.8733720196    -2.6638086935
 H        -9.6145317822      2.7417598952    -3.2340626373
 O         2.6531720551      8.2879606173    -1.1896874170
 H         1.7507414163      8.0342165087    -0.8900730428
 H         3.1517776199      7.5072332034    -0.8714586750
 O        -8.7352354581     -1.5388233603     6.9127522548
 H        -8.6397661499     -0.9232253658     6.1528415227
 H        -7.7892660508     -1.7264886029     7.0724030815
 O        -8.0328092145     -7.2115370209     0.2531853901
 H        -7.5675410647     -6.7702220484     0.9966914186
 H        -8.2624574117     -6.4347783269    -0.3021624054
 O        -1.5311697567     -3.3293592912     2.6351960000
 H        -0.9120280586     -2.6481781432     2.9753506351
 H        -1.2197709119     -3.3697313538     1.7044861715
 O         3.8205352988      1.2696497782    -7.3296438660
 H         3.5767447768      1.6691908918    -8.1955346946
 H         3.5310133541      1.9758360264    -6.7059958486
 O        -3.4853171587     -2.1333472356     4.1184989079
 H        -4.1110232529     -1.9301853510     3.3982357367
 H        -2.8670517767     -2.7474605093     3.6568791104
 O        -8.8778488492      3.2861496386     4.7245636898
 H        -8.0897608204      3.8745416185     4.6652921531
 H        -8.5073346086      2.5433543510     5.2475167205
 O        -6.2913328505     -2.7774204797    -6.0050538438
 H        -5.3624960608     -2.6138771506    -5.7555703602
 H        -6.3818999417     -2.1921194694    -6.7757315699
 O         0.9212605794     -8.3087103234     2.2428462272
 H         1.0011962183     -8.7756997194     3.0819033590
 H         0.7112545010     -7.3956806263     2.5644181393
 O         5.0211590769     -2.9495038127    -1.8801287957
 H         5.7778445516     -3.5136995757    -2.1254784810
 H         5.4261681559     -2.2817598716    -1.2947868333
 O         2.8569682721     -5.7250436013     1.5041979311
 H         2.8758770319     -4.9872089012     0.8606455374
 H         3.6960533157     -6.1640273850     1.3252975816
 O        -7.5642967808     -2.3778508491    -2.8648319507
 H        -8.3494339357     -1.9739389446    -3.2933639925
 H        -7.5420081227     -3.2659759708    -3.2616254063
 O        10.9708848662     -3.4053771016     0.2250589025
 H        11.8273351891     -2.9822318869    -0.0027058715
 H        10.5061859695     -2.6225967512     0.6102714727
 O         4.2463932886      5.4688624415     2.7526439467
 H         4.0859051225      5.1702115233     3.6655011689
 H         3.3512552454      5.7739310045     2.5006530658
 O        -7.1402763555     -4.7627560303    -4.2460139137
 H        -6.8199314320     -5.5525858001    -4.7255841501
 H        -6.9981510284     -4.0694849672    -4.9352992116
 O         1.5394830798     -1.5561381386    -5.2200441390
 H         2.2332511741     -2.0936491300    -4.7789505276
 H         1.7967478474     -1.6597504736    -6.1600373160
 O        -2.1732371448      2.8827971686     8.0187972156
 H        -2.5335082546      2.1255344231     8.5142005687
 H        -1.8766391178      2.4424916006     7.1902721931
 O        -3.2568739592      5.1423818053     4.1620692860
 H        -3.8332982589      4.9437987359     4.9361288631
 H        -3.9285311999      5.3505108968     3.4792947123
 O         8.9792987670      3.7535021458    -5.3083523188
 H         9.1035827348      4.6877977588    -5.0509926175
 H         8.5325036137      3.3968493148    -4.5333254469
 O         1.7959424326      6.6793615534     1.8119565905
 H         1.4336020551      5.9302463231     1.3022039746
 H         0.9824311296      7.1668212964     2.0538285216
 O        -4.9303853988     -8.4173189136     1.3529366967
 H        -4.7314571454     -8.7999971773     0.4704416088
 H        -5.1795808952     -9.2479694312     1.8251399140
 O         2.8093296148      5.7550736821    -6.3446796354
 H         3.7739480935      5.7675381250    -6.1818963794
 H         2.7984523494      5.5692053878    -7.2936392582
 O         0.0680314532      9.5909032527    -3.7561005203
 H        -0.1569241859      8.7845149788    -3.2479363413
 H        -0.3131142621      9.3495121035    -4.6273166625