109
charge = -1 c15_02_qmmm_cw_04.00.xyz
 C        -1.5296940000     -0.8365660000     0.1143590000
 C        -0.1877040000     -0.0797660000     0.0055090000
 O         0.8393560000     -0.8079260000     0.0482190000
 O        -0.2559540000      1.1714940000    -0.1074510000
 H        -1.5755340000     -1.6084760000    -0.6540010000
 H        -2.3773140000     -0.1619360000     0.0134090000
 H        -1.5787740000     -1.3424560000     1.0792490000
 H         1.6994760000      1.7548140000    -0.2037310000
 O         2.6115060000      1.4222640000    -0.1928910000
 H         2.3546360000      0.4885540000    -0.1026710000
 O        -3.5824674882      1.7151773704    -2.7863296806
 H        -3.7694146485      0.7982805060    -2.5431033907
 H        -4.4120958215      1.9875586831    -3.2352639640
 O         4.4771060565     -2.3040241879    -0.7981529198
 H         4.9406024263     -1.5184583571    -0.4400987100
 H         3.7002038522     -1.8938148546    -1.2413059527
 O        -2.1720462456      2.4701108407     3.4910930446
 H        -2.9325358884      1.8964370740     3.2385477170
 H        -2.5828951853      3.3631582964     3.5193738893
 O         2.2111849600     -1.4434820524    -1.9972145808
 H         1.7130047112     -1.1751717196    -1.1871924818
 H         1.4573220705     -1.7430920020    -2.5611555517
 O         4.7365255459      5.1715407162    -0.9520402387
 H         4.4398471456      4.8210538555    -0.0837147689
 H         4.6970270302      4.3546978253    -1.4915563349
 O         0.6438129527     -3.5971948475     3.6214929358
 H        -0.1026981131     -4.1634671131     3.3225095145
 H         1.0464586763     -3.4238708189     2.7373333487
 O         0.0880760245     -2.3183407731    -3.4051678083
 H        -0.6392935492     -1.9439739694    -3.9523752486
 H        -0.4008596332     -2.9533778225    -2.8361969949
 O        -1.2434871297     -4.3298992958    -2.0075507384
 H        -1.0919937125     -4.8163402351    -1.1645033077
 H        -1.9417504138     -4.8753149634    -2.4336246625
 O         3.9411848261     -2.7677709075     2.7167971448
 H         3.2407953216     -2.4682656174     2.0969487025
 H         3.7766049173     -3.7350464293     2.7119372509
 O         3.9730882287      0.2057125923     2.5932792920
 H         3.2073833137     -0.3653821508     2.7591369685
 H         4.6824573085     -0.2085540742     3.1284215862
 O        -4.1834778270     -1.0007008913    -2.7903537993
 H        -4.3646580381     -1.7896056749    -2.2273892377
 H        -4.9780769912     -1.0787765702    -3.3746938771
 O        -2.3410578660      2.6341315673    -0.5729622149
 H        -2.4946517525      2.3458321141    -1.4995579852
 H        -1.5157907333      2.1636349826    -0.3511500368
 O        -6.2308113683     -0.4208945405    -0.5439258193
 H        -5.4388741027     -0.9755634852    -0.6767827505
 H        -5.8205495955      0.4447111083    -0.3660788533
 O         1.4558340975      4.8087789642     3.3223671415
 H         1.5690104692      4.4035766208     4.2018245306
 H         1.0374032538      4.1063223655     2.8064982441
 O         3.3793087618      3.5876897831     0.9912358579
 H         3.4039342979      2.6978037712     0.5915210964
 H         3.2873844671      3.3312378681     1.9336353870
 O        -0.6871776305      1.6815163504    -2.7544658005
 H        -0.5362526009      1.3986080850    -1.8249324142
 H        -1.6174264042      1.3963538886    -2.8589636392
 O         7.0101664552      1.7404177180    -1.7400982124
 H         7.0284663633      2.2947837315    -0.9505931081
 H         6.0542055523      1.7229395233    -1.9546802896
 O         1.6689663756     -0.5577119868     3.6006762783
 H         0.9934684418     -0.9156729432     2.9869263267
 H         1.1383057975      0.1499483885     4.0279734826
 O         4.3551389804      2.3237052173    -1.9060551021
 H         3.8947059533      2.0973711922    -2.7389212079
 H         3.7886877593      1.8471553495    -1.2573702063
 O         1.4530065956     -3.1591003955     1.1771073649
 H         1.6222081113     -3.8041181897     0.4766827436
 H         1.2808536991     -2.3513786157     0.6421856140
 O         1.1633004133      4.4975865925    -0.3659857943
 H         0.4917719034      4.1167417785     0.2502116614
 H         1.9764560040      4.3329292503     0.1560894731
 O         5.2083037291      0.0733117770     0.1055420621
 H         5.5217832228      0.9715362349    -0.1163900051
 H         4.7076724553      0.2181108948     0.9380150595
 O        -4.7049867382     -2.9167850713    -0.8940637969
 H        -5.3917608921     -3.5916365927    -0.9565461491
 H        -3.9472160815     -3.4179752960    -0.5458757307
 O         6.4745191597      2.5635458862     0.9451540463
 H         5.8393378490      2.9859847530     1.5660642356
 H         6.7487588493      1.7430054711     1.4105336132
 O        -0.0932856015      3.0771008860     1.6518408627
 H        -0.8873077224      2.8622287862     2.1784979895
 H        -0.1400598875      2.4068554229     0.9605242885
 O        -2.1279103574     -1.2585423265    -4.7327083200
 H        -2.4402316198     -2.0522142951    -5.2146667005
 H        -2.8224357298     -1.1785930043    -4.0423575613
 O         1.6222267356      0.7159037896    -4.0094390961
 H         1.3297599713      0.5394473953    -4.9225406266
 H         0.7727500001      0.9727873824    -3.6035879404
 O        -4.0392610804      0.7879956577     2.4966333829
 H        -4.2805233105      1.2208851891     1.6533342012
 H        -4.3119642142     -0.1361829556     2.3150100813
 O         3.8327766492     -0.7885463723    -4.3059380276
 H         3.0873716490     -0.1683335900    -4.1639973722
 H         3.9645920179     -1.0960233002    -3.3874491159
 O        -2.8210920731     -4.0008611514     0.8061874361
 H        -1.9576660765     -4.2008169243     1.2377719381
 H        -3.4047438277     -4.7066611201     1.1625928039
 O        -4.2336697532     -1.7550793888     1.9470332308
 H        -3.6263878914     -2.2643932324     1.3674391797
 H        -4.2162178409     -2.3183218165     2.7567737499
 O        -4.9081979439      1.9846577073     0.0435169589
 H        -5.2646598411      2.7182252130    -0.4741927232
 H        -3.9398632970      2.1336169796    -0.0505662561
 O         0.2638818215      4.2766518017    -2.8924038696
 H        -0.2593079421      3.4559751125    -2.9680681418
 H         0.6238229873      4.1959524768    -1.9803984632