8
charge = 1 c15_07_qmmm_a.xyz
 C         1.2281354545      0.0496881818     0.8093709091
 N        -0.2588145455      0.2053781818     0.7935409091
 H        -0.7025845455     -0.4517618182     1.4330409091
 H        -0.5352845455      1.1416181818     1.0847109091
 H        -0.6396545455      0.0358181818    -0.1640190909
 H         1.6534854545      0.7747981818     0.1259509091
 H         1.5928954545      0.2200381818     1.8152609091
 H         1.4675054545     -0.9554418182     0.4837909091